*
* Deltares, Delft3D-RGFGRID Version 4.18.00.16842, May 25 2011, 10:45:12
* File creation date: 2015-05-13, 13:15:03
*
Coordinate System = Cartesian
     388     100
 0 0 0
 ETA=    1   4.67357980043271265E+05   4.67373596579246805E+05   4.67389199664698157E+05   4.67404775849101134E+05   4.67420311681931722E+05
             4.67435793712665676E+05   4.67451208490778925E+05   4.67466542565747281E+05   4.67481782487046614E+05   4.67496914804152737E+05
             4.67511929745501082E+05   4.67526832255365385E+05   4.67541630956978886E+05   4.67556334473574825E+05   4.67570951428386557E+05
             4.67585490444647323E+05   4.67599960145590419E+05   4.67614369154448970E+05   4.67628726094456390E+05   4.67643038938965241E+05
             4.67657313061805151E+05   4.67671553186925245E+05   4.67685764038274472E+05   4.67699950339801901E+05   4.67714116815456422E+05
             4.67728268189187162E+05   4.67742409184943070E+05   4.67756544526673213E+05   4.67770678998583462E+05   4.67784817625907250E+05
             4.67798965494134754E+05   4.67813127688756387E+05   4.67827309295262385E+05   4.67841515399143042E+05   4.67855751085888653E+05
             4.67870021440989454E+05   4.67884331549935858E+05   4.67898685900494980E+05   4.67913086589541694E+05   4.67927535116227868E+05
             4.67942032979705371E+05   4.67956581679126015E+05   4.67971182713641552E+05   4.67985837582403910E+05   4.68000547784564900E+05
             4.68015314819276216E+05   4.68030141642790579E+05   4.68045037039763585E+05   4.68060011251951859E+05   4.68075074521111732E+05
             4.68090237088999711E+05   4.68105509197372128E+05   4.68120901087985549E+05   4.68136423002596362E+05   4.68152085182961076E+05
             4.68167897297691787E+05   4.68183866722823412E+05   4.68200000261246460E+05   4.68216304715851613E+05   4.68232786889529321E+05
             4.68249453585170151E+05   4.68266311605664669E+05   4.68283367753903440E+05   4.68300628832777031E+05   4.68318102305981505E+05
             4.68335798280434508E+05   4.68353727523859357E+05   4.68371900803979137E+05   4.68390328888517222E+05   4.68409022545196582E+05
             4.68427992541740590E+05   4.68447249645872274E+05   4.68466804625315068E+05   4.68486668108136684E+05   4.68506850163783762E+05
             4.68527360722047335E+05   4.68548209712718730E+05   4.68569407065589039E+05   4.68590962710449530E+05   4.68612886577091413E+05
             4.68635188595305779E+05   4.68657878694883955E+05   4.68680962327017100E+05   4.68704427028497099E+05   4.68728255857515556E+05
             4.68752431872264424E+05   4.68776938130935421E+05   4.68801757691720384E+05   4.68826873612811090E+05   4.68852268952399376E+05
             4.68877926768677018E+05   4.68903835766372853E+05   4.68930007236363657E+05   4.68956458116063208E+05   4.68983205342885281E+05
             4.69010265854243655E+05   4.69037656587552163E+05   4.69065394480224582E+05   4.69093496469674632E+05   4.69121979493316205E+05
             4.69150848781456414E+05   4.69180062735976069E+05   4.69209568051649141E+05   4.69239311423249834E+05   4.69269239545552118E+05
             4.69299299113330198E+05   4.69329436821358104E+05   4.69359599364409980E+05   4.69389733437259914E+05   4.69419798676689155E+05
             4.69449806487507245E+05   4.69479781216530886E+05   4.69509747210576781E+05   4.69539728816461691E+05   4.69569750381002319E+05
             4.69599836251015367E+05   4.69630010773317597E+05   4.69660298294725595E+05   4.69690719905450766E+05   4.69721283669282799E+05
             4.69751994393406087E+05   4.69782856885005021E+05   4.69813875951263821E+05   4.69845056399366935E+05   4.69876403036498697E+05
             4.69907920669843268E+05   4.69939614106585272E+05   4.69971486183192348E+05   4.70003531853266293E+05   4.70035744099692267E+05
             4.70068115905355487E+05   4.70100640253140999E+05   4.70133310125934193E+05   4.70166118506620114E+05   4.70199058378084039E+05
             4.70232122723211069E+05   4.70265303584418842E+05   4.70298589242254617E+05   4.70331967036797898E+05   4.70365424308128422E+05
             4.70398948396325810E+05   4.70432526641469682E+05   4.70466146383639716E+05   4.70499794962915475E+05   4.70533459719376697E+05
             4.70567126547873020E+05   4.70600775562334864E+05   4.70634385431462433E+05   4.70667934823956282E+05   4.70701402408516733E+05
             4.70734766853844281E+05   4.70768006828639249E+05   4.70801101001602190E+05   4.70834028041433310E+05   4.70866768453900353E+05
             4.70899310093039705E+05   4.70931642649955116E+05   4.70963755815750337E+05   4.70995639281528827E+05   4.71027282738394570E+05
             4.71058675877451024E+05   4.71089808389801998E+05   4.71120669966551126E+05   4.71151252855471685E+05   4.71181559531014995E+05
             4.71211595024302078E+05   4.71241364366453839E+05   4.71270872588591301E+05   4.71300124721835251E+05   4.71329125797306770E+05
             4.71357880846126704E+05   4.71386394899416075E+05   4.71414674930965179E+05   4.71442735685241816E+05   4.71470593849383062E+05
             4.71498266110526049E+05   4.71525769155808026E+05   4.71553119672365952E+05   4.71580334347337135E+05   4.71607429867858591E+05
             4.71634422921067628E+05   4.71661322567876719E+05   4.71688107364301046E+05   4.71714748240131070E+05   4.71741216125157429E+05
             4.71767481949170644E+05   4.71793516641961236E+05   4.71819291133319843E+05   4.71844776353036868E+05   4.71869943230903125E+05
             4.71894777000742208E+05   4.71919320112510759E+05   4.71943629320198437E+05   4.71967761377795017E+05   4.71991773039290274E+05
             4.72015721058674098E+05   4.72039662189936091E+05   4.72063653187066084E+05   4.72087750804053794E+05   4.72112005326549697E+05
             4.72136441166847071E+05   4.72161076268899895E+05   4.72185928576662147E+05   4.72211016034087865E+05   4.72236356585131027E+05
             4.72261968173745554E+05   4.72287868743885425E+05   4.72314076239504677E+05   4.72340606935338234E+05   4.72367470429244975E+05
             4.72394674649864610E+05   4.72422227525836963E+05   4.72450136985801684E+05   4.72478410958398774E+05   4.72507057372267824E+05
             4.72536084156048717E+05   4.72565499238381162E+05   4.72595307663118409E+05   4.72625502934967517E+05   4.72656075673849031E+05
             4.72687016499683377E+05   4.72718316032391158E+05   4.72749964891892916E+05   4.72781953698109079E+05   4.72814273070960131E+05
             4.72846913630366675E+05   4.72879864955761353E+05   4.72913112464625505E+05   4.72946640533952799E+05   4.72980433540736791E+05
             4.73014475861970976E+05   4.73048751874649082E+05   4.73083245955764549E+05   4.73117942482311104E+05   4.73152825831282185E+05
             4.73187880458603322E+05   4.73223091135927534E+05   4.73258442713839759E+05   4.73293920042924932E+05   4.73329507973767933E+05
             4.73365191356953699E+05   4.73400955043067108E+05   4.73436783882693213E+05   4.73472662726416776E+05   4.73508575636580004E+05
             4.73544503522553714E+05   4.73580426505465934E+05   4.73616324706444750E+05   4.73652178246618016E+05   4.73687967247113877E+05
             4.73723671829060419E+05   4.73759272113585495E+05   4.73794748221817368E+05   4.73830081462749455E+05   4.73865257896837604E+05
             4.73900264772403054E+05   4.73935089337767276E+05   4.73969718841251568E+05   4.74004140531177225E+05   4.74038341655865661E+05
             4.74072309463638114E+05   4.74106031202816055E+05   4.74139503224730724E+05   4.74172758292754006E+05   4.74205838273267378E+05
             4.74238785032652726E+05   4.74271640437291586E+05   4.74304446353565843E+05   4.74337244647857209E+05   4.74370077186547336E+05
             4.74402985836017935E+05   4.74436007999222376E+05   4.74469163225400087E+05   4.74502466600362095E+05   4.74535933209919429E+05
             4.74569578139883350E+05   4.74603416476064653E+05   4.74637463304274483E+05   4.74671733710323868E+05   4.74706242780023953E+05
             4.74741002562099078E+05   4.74776012956927414E+05   4.74811270827800268E+05   4.74846773038009182E+05   4.74882516450845636E+05
             4.74918497929600941E+05   4.74954714337566693E+05   4.74991162538034259E+05   4.75027839394295181E+05   4.75064740992579493E+05
             4.75101860310872202E+05   4.75139189550096868E+05   4.75176720911177108E+05   4.75214446595036541E+05   4.75252358802598843E+05
             4.75290449734787573E+05   4.75328711592526350E+05   4.75367136576738791E+05   4.75405714718174015E+05   4.75444427366883261E+05
             4.75483253702743270E+05   4.75522172905630723E+05   4.75561164155422361E+05   4.75600206631994923E+05   4.75639279515225091E+05
             4.75678361984989664E+05   4.75717433221165265E+05   4.75756475127594895E+05   4.75795480503986240E+05   4.75834444874013134E+05
             4.75873363761349523E+05   4.75912232689669181E+05   4.75951047182646231E+05   4.75989802763954271E+05   4.76028494957267423E+05
             4.76067119286259403E+05   4.76105672224561218E+05   4.76144154045631352E+05   4.76182565972885815E+05   4.76220909229739977E+05
             4.76259185039609845E+05   4.76297394625910849E+05   4.76335539212058822E+05   4.76373620021469309E+05   4.76411638277558261E+05
             4.76449594721914036E+05   4.76487488168816955E+05   4.76525316950720269E+05   4.76563079400077055E+05   4.76600773849340621E+05
             4.76638398630964104E+05   4.76675952077400580E+05   4.76713432521103299E+05   4.76750838294525514E+05   4.76788167642820801E+05
             4.76825418461944675E+05   4.76862588560553442E+05   4.76899675747303059E+05   4.76936677830849658E+05   4.76973592619849311E+05
             4.77010417922958150E+05   4.77047151548832306E+05   4.77083791306127794E+05   4.77120335978322721E+05   4.77156788248183089E+05
             4.77193151773296937E+05   4.77229430211252184E+05   4.77265627219636866E+05   4.77301746456039022E+05   4.77337791578046570E+05
             4.77373766243247606E+05   4.77409674109229993E+05   4.77445518379892572E+05   4.77481300444377295E+05   4.77517021238136746E+05
             4.77552681696623680E+05   4.77588282755290740E+05   4.77623825349590741E+05   4.77659310414976266E+05   4.77694738886900013E+05
             4.77730111700814683E+05   4.77765428410053544E+05   4.77800683039472264E+05   4.77835868231806962E+05   4.77870976629793877E+05
             4.77906000876169244E+05   4.77940933613669244E+05   4.77975767485030054E+05   4.78010495132988028E+05   4.78045109200279170E+05
             4.78079606355339580E+05   4.78113999369404220E+05   4.78148305039407918E+05   4.78182540162285441E+05   4.78216721534971730E+05
             4.78250865954401379E+05   4.78284990217509214E+05   4.78319111121230177E+05   4.78353245462498977E+05   4.78387406678863452E+05
             4.78421594770323602E+05   4.78455806377492379E+05   4.78490038140982972E+05   4.78524286701408389E+05   4.78558548699381645E+05
             4.78592820775515749E+05   4.78627099570423830E+05   4.78661381724718784E+05
 ETA=    2   4.67468832070080913E+05   4.67484562528161565E+05   4.67500278492514044E+05   4.67515965472663054E+05   4.67531608812093502E+05
             4.67547192754154734E+05   4.67562701379499398E+05   4.67578119961029675E+05   4.67593437311193265E+05   4.67608643441157881E+05
             4.67623732777952158E+05   4.67638705606149626E+05   4.67653566645408107E+05   4.67668321614892047E+05   4.67682979874157289E+05
             4.67697551787843462E+05   4.67712047484442475E+05   4.67726477470494399E+05   4.67740852017328260E+05   4.67755181306194689E+05
             4.67769468966899090E+05   4.67783718545160373E+05   4.67797933373825159E+05   4.67812118457381206E+05   4.67826278590942442E+05
             4.67840418318203185E+05   4.67854543085320794E+05   4.67868658098179905E+05   4.67882769257161592E+05   4.67896880723113543E+05
             4.67910997377873166E+05   4.67925124019228271E+05   4.67939266095227620E+05   4.67953429001676850E+05   4.67967618173161172E+05
             4.67981839848653821E+05   4.67996100349387096E+05   4.68010405628743232E+05   4.68024757220979722E+05   4.68039156349909608E+05
             4.68053604353270726E+05   4.68068103036126704E+05   4.68082654381946602E+05   4.68097260656424158E+05   4.68111924839702144E+05
             4.68126650267774414E+05   4.68141441592663177E+05   4.68156306024761056E+05   4.68171252181870863E+05   4.68186288995373587E+05
             4.68201426204013173E+05   4.68216673981424421E+05   4.68232042563568335E+05   4.68247542185327213E+05   4.68263183308678912E+05
             4.68278975762822200E+05   4.68294925970619835E+05   4.68311039937301131E+05   4.68327323725359223E+05   4.68343783986505121E+05
             4.68360427693392383E+05   4.68377261597353499E+05   4.68394291916073591E+05   4.68411524960527429E+05   4.68428967529506597E+05
             4.68446629430656903E+05   4.68464521332150791E+05   4.68482653639984608E+05   4.68501037039167772E+05   4.68519682387397042E+05
             4.68538599969357892E+05   4.68557799069194007E+05   4.68577288890154043E+05   4.68597078336551262E+05   4.68617178308919363E+05
             4.68637599955482234E+05   4.68658353769731068E+05   4.68679449894335936E+05   4.68700898420213372E+05   4.68722708867389301E+05
             4.68744890118630137E+05   4.68767451131104841E+05   4.68790396240223083E+05   4.68813714827900461E+05   4.68837392292846693E+05
             4.68861413394921867E+05   4.68885762290198647E+05   4.68910423046980461E+05   4.68935379592563957E+05   4.68960616226771788E+05
             4.68986117545858317E+05   4.69011873180373572E+05   4.69037894360610750E+05   4.69064197695913143E+05   4.69090799677713949E+05
             4.69117716207344318E+05   4.69144963315191620E+05   4.69172557834452833E+05   4.69200518665559066E+05   4.69228865676675749E+05
             4.69257607152689714E+05   4.69286700605034828E+05   4.69316092054532724E+05   4.69345728397450061E+05   4.69375557376594690E+05
             4.69405527647688286E+05   4.69435589140167285E+05   4.69465693505770178E+05   4.69495793681534997E+05   4.69525854513792496E+05
             4.69555882135691645E+05   4.69585894606622518E+05   4.69615911295669852E+05   4.69645954561272752E+05   4.69676048081908317E+05
             4.69706215184438042E+05   4.69736477444298798E+05   4.69766856093321810E+05   4.69797369343000581E+05   4.69828025126540044E+05
             4.69858828366011323E+05   4.69889783642537019E+05   4.69920895770385861E+05   4.69952169227908656E+05   4.69983607832217996E+05
             4.70015214337163663E+05   4.70046990837409219E+05   4.70078937765463081E+05   4.70111051750945917E+05   4.70143327764427639E+05
             4.70175760195490962E+05   4.70208342502631072E+05   4.70241067565291771E+05   4.70273927809986693E+05   4.70306915066726622E+05
             4.70340020714412502E+05   4.70373235406621417E+05   4.70406549241421162E+05   4.70439951595956984E+05   4.70473431371586339E+05
             4.70506976615618740E+05   4.70540574916330806E+05   4.70574213540350611E+05   4.70607879557697859E+05   4.70641559765372949E+05
             4.70675239664040681E+05   4.70708900847613346E+05   4.70742523721024627E+05   4.70776088282723736E+05   4.70809573851956404E+05
             4.70842959538371302E+05   4.70876224430685921E+05   4.70909348037544172E+05   4.70942310171863239E+05   4.70975092302983569E+05
             4.71007682038519590E+05   4.71040069111679448E+05   4.71072243052959326E+05   4.71104193600615079E+05   4.71135910878634895E+05
             4.71167384948123712E+05   4.71198606120554265E+05   4.71229565346886870E+05   4.71260255687951634E+05   4.71290678309017909E+05
             4.71320837241810455E+05   4.71350736332231492E+05   4.71380380348798295E+05   4.71409774570239824E+05   4.71438923910970741E+05
             4.71467832943180809E+05   4.71496506466080144E+05   4.71524951016602514E+05   4.71553180730789492E+05   4.71581211948743847E+05
             4.71609060665486963E+05   4.71636743131027673E+05   4.71664275561590970E+05   4.71691673990953597E+05   4.71718955185629486E+05
             4.71746135901902628E+05   4.71773225837688078E+05   4.71800205671206524E+05   4.71827049128477811E+05   4.71853729834919039E+05
             4.71880220715270087E+05   4.71906494742654671E+05   4.71932526156675653E+05   4.71958292182012054E+05   4.71983771559378540E+05
             4.72008955877362867E+05   4.72033879533384636E+05   4.72058590003924037E+05   4.72083135972561722E+05   4.72107569760656857E+05
             4.72131944987513416E+05   4.72156314590138267E+05   4.72180730044550262E+05   4.72205242199219472E+05   4.72229896584784612E+05
             4.72254718072961085E+05   4.72279726446370711E+05   4.72304940720116312E+05   4.72330379498487222E+05   4.72356061041508510E+05
             4.72382003721421817E+05   4.72408227056809585E+05   4.72434751273489150E+05   4.72461595407239918E+05   4.72488768420865468E+05
             4.72516278866074979E+05   4.72544135183308972E+05   4.72572347101082501E+05   4.72600925245823571E+05   4.72629879417410179E+05
             4.72659219927311002E+05   4.72688957531404798E+05   4.72719099474913382E+05   4.72749636757111351E+05   4.72780558378386253E+05
             4.72811852141517214E+05   4.72843507675850706E+05   4.72875515001902531E+05   4.72907863364612625E+05   4.72940543108677492E+05
             4.72973545387537102E+05   4.73006860110412585E+05   4.73040469288116612E+05   4.73074355253695103E+05   4.73108499720970052E+05
             4.73142886696614791E+05   4.73177501032523578E+05   4.73212326630582102E+05   4.73247346353749454E+05   4.73282543445284420E+05
             4.73317901510597381E+05   4.73353406291723775E+05   4.73389045056916075E+05   4.73424804202093394E+05   4.73460671946017479E+05
             4.73496636544571724E+05   4.73532684317858599E+05   4.73568798817099247E+05   4.73604962291370321E+05   4.73641155567905516E+05
             4.73677361455565377E+05   4.73713561745306302E+05   4.73749736730680394E+05   4.73785864407008979E+05   4.73821921455276548E+05
             4.73857884084187623E+05   4.73893728517563024E+05   4.73929430577437102E+05   4.73964968785247183E+05   4.74000334171535273E+05
             4.74035520526088483E+05   4.74070521273687074E+05   4.74105328582586313E+05   4.74139934266158496E+05   4.74174330056211038E+05
             4.74208507914827613E+05   4.74242459738217702E+05   4.74276184858463355E+05   4.74309714865260234E+05   4.74343088852365967E+05
             4.74376345907804556E+05   4.74409524972265761E+05   4.74442665009744058E+05   4.74475804996115738E+05   4.74508983273268794E+05
             4.74542238209210511E+05   4.74575603678820538E+05   4.74609095322113542E+05   4.74642724349079013E+05   4.74676501951979939E+05
             4.74710440573110594E+05   4.74744552661617112E+05   4.74778848862586019E+05   4.74813336522737984E+05   4.74848021225060860E+05
             4.74882907646262203E+05   4.74918004217602371E+05   4.74953318506784330E+05   4.74988855983273068E+05   4.75024617574943928E+05
             4.75060602284344903E+05   4.75096810456667969E+05   4.75133247434960795E+05   4.75169920206392708E+05   4.75206834044052754E+05
             4.75243977409954241E+05   4.75281337473308668E+05   4.75318902597272419E+05   4.75356663147874235E+05   4.75394611113691062E+05
             4.75432739541606337E+05   4.75471043422976974E+05   4.75509519201969495E+05   4.75548160887184145E+05   4.75586945848048257E+05
             4.75625849374103302E+05   4.75664847950197698E+05   4.75703921952977311E+05   4.75743053201609233E+05   4.75782223190177523E+05
             4.75821410894249682E+05   4.75860595108988578E+05   4.75899756541387527E+05   4.75938889192526054E+05   4.75977989047205599E+05
             4.76017051800361660E+05   4.76056071104209579E+05   4.76095040351110569E+05   4.76133953976950899E+05   4.76172809761211975E+05
             4.76211606547404954E+05   4.76250344565939507E+05   4.76289018968426157E+05   4.76327626342522330E+05   4.76366164164884365E+05
             4.76404633520382049E+05   4.76443036484902841E+05   4.76481374676327105E+05   4.76519648146311054E+05   4.76557856653927185E+05
             4.76595999573576089E+05   4.76634075734387676E+05   4.76672083809387987E+05   4.76710022162986104E+05   4.76747888853588491E+05
             4.76785681898147217E+05   4.76823399005662650E+05   4.76861037596642622E+05   4.76898595084840897E+05   4.76936068786188844E+05
             4.76973457237249182E+05   4.77010759199821798E+05   4.77047973096059053E+05   4.77085096940428484E+05   4.77122128711188969E+05
             4.77159066370109620E+05   4.77195908296341368E+05   4.77232653123608616E+05   4.77269300273006782E+05   4.77305852169571852E+05
             4.77342312270444992E+05   4.77378684025894210E+05   4.77414970973615244E+05   4.77451176869312825E+05   4.77487305667337612E+05
             4.77523361926569662E+05   4.77559350610555965E+05   4.77595276034469483E+05   4.77631138794142753E+05   4.77666939019127807E+05
             4.77702677075016487E+05   4.77738353914955514E+05   4.77773970885274524E+05   4.77809529520143522E+05   4.77845031484000268E+05
             4.77880478759396705E+05   4.77915871865757450E+05   4.77951204714716703E+05   4.77986469877776515E+05   4.78021660143461719E+05
             4.78056769069172151E+05   4.78091790590222634E+05   4.78126718359027000E+05   4.78161545150426100E+05   4.78196263683697965E+05
             4.78230870242209814E+05   4.78265377641649335E+05   4.78299802493148483E+05   4.78334161109313020E+05   4.78368469305458304E+05
             4.78402742711625237E+05   4.78436996975146350E+05   4.78471247996560996E+05   4.78505511713048269E+05   4.78539800899167778E+05
             4.78574115474584978E+05   4.78608452202601125E+05   4.78642807878727792E+05   4.78677179317171918E+05   4.78711563372496283E+05
             4.78745956902833772E+05   4.78780356745193887E+05   4.78814759742398513E+05
 ETA=    3   4.67579461005996447E+05   4.67595309341472806E+05   4.67611142143019009E+05   4.67626943879728322E+05   4.67642698632622370E+05
             4.67658388398423034E+05   4.67673994790074823E+05   4.67689501646499906E+05   4.67704900195842492E+05   4.67720183901533019E+05
             4.67735349903738126E+05   4.67750395319702569E+05   4.67765320968119020E+05   4.67780129620662483E+05   4.67794831417916343E+05
             4.67809438462269958E+05   4.67823962551526201E+05   4.67838415904224385E+05   4.67852810436419270E+05   4.67867157766429358E+05
             4.67881460553823155E+05   4.67895721167107520E+05   4.67909941868749156E+05   4.67924127625936002E+05   4.67938283301798918E+05
             4.67952413500643044E+05   4.67966524153234204E+05   4.67980620940487890E+05   4.67994710315470758E+05   4.68008796149414848E+05
             4.68022883111097326E+05   4.68036975833853823E+05   4.68051080016950495E+05   4.68065201353682554E+05   4.68079345706490509E+05
             4.68093520403683477E+05   4.68107732985180279E+05   4.68121990495521575E+05   4.68136294300785637E+05   4.68150645330977160E+05
             4.68165044755756622E+05   4.68179494714316563E+05   4.68193997652594000E+05   4.68208556540139194E+05   4.68223175921511021E+05
             4.68237860943909909E+05   4.68252617603145831E+05   4.68267451915490965E+05   4.68282370846573845E+05   4.68297381948141381E+05
             4.68312494566185807E+05   4.68327718762043223E+05   4.68343064716240915E+05   4.68358542760628799E+05   4.68374163517954992E+05
             4.68389936844491400E+05   4.68405868414635828E+05   4.68421963358367910E+05   4.68438227014851058E+05   4.68454665953947988E+05
             4.68471287221568404E+05   4.68488097531641717E+05   4.68505102607800567E+05   4.68522308155052364E+05   4.68539720407444693E+05
             4.68557348900262848E+05   4.68575204064806865E+05   4.68593296075746708E+05   4.68611635552996537E+05   4.68630233284342801E+05
             4.68649099194086506E+05   4.68668241132538009E+05   4.68687666559984209E+05   4.68707383016766224E+05   4.68727402067731950E+05
             4.68747735876765859E+05   4.68768395740423352E+05   4.68789391983738751E+05   4.68810734639753413E+05   4.68832432977277203E+05
             4.68854494898536359E+05   4.68876928155471745E+05   4.68899736364085285E+05   4.68922910575478338E+05   4.68946438308967277E+05
             4.68970306228854868E+05   4.68994499567195599E+05   4.69019003227208101E+05   4.69043802096980566E+05   4.69068881766134989E+05
             4.69094228230053093E+05   4.69119832216060546E+05   4.69145704848083202E+05   4.69171862317344407E+05   4.69198320645751664E+05
             4.69225094819288352E+05   4.69252199900253851E+05   4.69279652459912701E+05   4.69307473581705533E+05   4.69335686031806865E+05
             4.69364300572073378E+05   4.69393274421926239E+05   4.69422552905008895E+05   4.69452082769950910E+05   4.69481813150841044E+05
             4.69511694654749997E+05   4.69541680024773581E+05   4.69571726279710303E+05   4.69601792590870813E+05   4.69631848227495328E+05
             4.69661894847857649E+05   4.69691944227286382E+05   4.69722010485270584E+05   4.69752114276022359E+05   4.69782278606134176E+05
             4.69812525739577075E+05   4.69842874526738306E+05   4.69873343081154977E+05   4.69903946961373731E+05   4.69934693749398226E+05
             4.69965588480744511E+05   4.69996635709258320E+05   4.70027840061007941E+05   4.70059205685801338E+05   4.70090735607076844E+05
             4.70122430333611032E+05   4.70154289250248810E+05   4.70186310740106564E+05   4.70218492757653352E+05   4.70250832259018847E+05
             4.70283325210694456E+05   4.70315965376498527E+05   4.70348745532224304E+05   4.70381657697775634E+05   4.70414692403551599E+05
             4.70447839426252642E+05   4.70481088321729389E+05   4.70514430715583323E+05   4.70547858019498759E+05   4.70581360821865441E+05
             4.70614927754483826E+05   4.70648546646375558E+05   4.70682204821170773E+05   4.70715888964427053E+05   4.70749585310823633E+05
             4.70783279115664307E+05   4.70816953337848245E+05   4.70850590072265186E+05   4.70884170745782263E+05   4.70917675293221371E+05
             4.70951083181378432E+05   4.70984373954876442E+05   4.71017528038543940E+05   4.71050526256752957E+05   4.71083350940596312E+05
             4.71115989713495830E+05   4.71148432164280908E+05   4.71180667738768621E+05   4.71212686344906047E+05   4.71244478315745888E+05
             4.71276034091121866E+05   4.71307344836834993E+05   4.71338402497063274E+05   4.71369200843748637E+05   4.71399740097467089E+05
             4.71430023023961578E+05   4.71460052434979647E+05   4.71489832926286559E+05   4.71519369799324893E+05   4.71548667944656045E+05
             4.71577731588892348E+05   4.71606565109084826E+05   4.71635174646629486E+05   4.71663573850931833E+05   4.71691778577123594E+05
             4.71719804301836703E+05   4.71747666774299636E+05   4.71775381660072424E+05   4.71802964500438422E+05   4.71830432043152512E+05
             4.71857801075398515E+05   4.71885081814817386E+05   4.71912257214799873E+05   4.71939303757325222E+05   4.71966197703844169E+05
             4.71992914086462173E+05   4.72019427845884173E+05   4.72045716242761933E+05   4.72071763170763734E+05   4.72097555043059750E+05
             4.72123088700061140E+05   4.72148391683720460E+05   4.72173502130448469E+05   4.72198460482222959E+05   4.72223314856208628E+05
             4.72248115742524446E+05   4.72272912373854197E+05   4.72297750870664371E+05   4.72322676154022978E+05   4.72347728999842308E+05
             4.72372934832106752E+05   4.72398315152709722E+05   4.72423890263045032E+05   4.72449679362930125E+05   4.72475700867868902E+05
             4.72501973521798674E+05   4.72528518680401961E+05   4.72555358631210576E+05   4.72582514324661461E+05   4.72609995185567532E+05
             4.72637810108800652E+05   4.72665968054507743E+05   4.72694480848198698E+05   4.72723361435007653E+05   4.72752621751609957E+05
             4.72782274598619901E+05   4.72812333100533870E+05   4.72842806218525802E+05   4.72873683401998889E+05   4.72904951519025373E+05
             4.72936596177770291E+05   4.72968605916514003E+05   4.73000969636534923E+05   4.73033675547517720E+05   4.73066713916199107E+05
             4.73100075902949844E+05   4.73133751184840337E+05   4.73167719466560171E+05   4.73201960523656686E+05   4.73236453812969208E+05
             4.73271183076902293E+05   4.73306133161055041E+05   4.73341287661724084E+05   4.73376628231002775E+05   4.73412136540505802E+05
             4.73447795268249931E+05   4.73483591607397597E+05   4.73519514853334578E+05   4.73555553481806244E+05   4.73591698837781965E+05
             4.73627942292362684E+05   4.73664272179335763E+05   4.73700670447222481E+05   4.73737116576384054E+05   4.73773589071576891E+05
             4.73810071915943699E+05   4.73846548458537145E+05   4.73882999551170564E+05   4.73919400736298412E+05   4.73955725214832870E+05
             4.73991945456978283E+05   4.74028033651776204E+05   4.74063961323178082E+05   4.74099704350306594E+05   4.74135258624948154E+05
             4.74170624453245837E+05   4.74205801375043171E+05   4.74240786497142457E+05   4.74275576170120738E+05   4.74310166642659984E+05
             4.74344554521358514E+05   4.74378736324228463E+05   4.74412714677968412E+05   4.74446519727065577E+05   4.74480187787039962E+05
             4.74513755139062647E+05   4.74547257847065048E+05   4.74580731961320678E+05   4.74614213458625192E+05   4.74647737267390010E+05
             4.74681338247311825E+05   4.74715046683543769E+05   4.74748874448469083E+05   4.74782828895236307E+05   4.74816917422682338E+05
             4.74851149781229498E+05   4.74885535784878593E+05   4.74920082039028115E+05   4.74954787800264487E+05   4.74989649135455082E+05
             4.75024664191338758E+05   4.75059849077944527E+05   4.75095221974860411E+05   4.75130797381509270E+05   4.75166579912392772E+05
             4.75202570612176671E+05   4.75238773221259820E+05   4.75275201737910160E+05   4.75311873140744166E+05   4.75348800578410854E+05
             4.75385969422151800E+05   4.75423361682385264E+05   4.75460961471342191E+05   4.75498757864938350E+05   4.75536742505522969E+05
             4.75574908955126710E+05   4.75613255436381209E+05   4.75651782498468703E+05   4.75690487228520680E+05   4.75729344022470643E+05
             4.75768324184960045E+05   4.75807401381163043E+05   4.75846557394315023E+05   4.75885776613523834E+05   4.75925042689990078E+05
             4.75964334603465686E+05   4.76003630734233302E+05   4.76042911299374537E+05   4.76082170827485505E+05   4.76121405752871302E+05
             4.76160611827989924E+05   4.76199780970356544E+05   4.76238904443276871E+05   4.76277975480495603E+05   4.76316994240883505E+05
             4.76355962873828597E+05   4.76394884017039032E+05   4.76433749069869344E+05   4.76472549969874613E+05   4.76511280430507963E+05
             4.76549941449664475E+05   4.76588535913568398E+05   4.76627065829896077E+05   4.76665530131186708E+05   4.76703927056089218E+05
             4.76742254696233489E+05   4.76780511875815515E+05   4.76818697525660391E+05   4.76856810115445463E+05   4.76894847428273933E+05
             4.76932807076465571E+05   4.76970686231736559E+05   4.77008481407016458E+05   4.77046188998999598E+05   4.77083805564217910E+05
             4.77121330206883082E+05   4.77158762539718009E+05   4.77196101687431918E+05   4.77233345874204882E+05   4.77270493158884346E+05
             4.77307541693834355E+05   4.77344490478520805E+05   4.77381338890260085E+05   4.77418086947694595E+05   4.77454736935664027E+05
             4.77491292034252547E+05   4.77527755482593144E+05   4.77564130773236509E+05   4.77600421689415234E+05   4.77636632443032518E+05
             4.77672768600399082E+05   4.77708836365881900E+05   4.77744841011299461E+05   4.77780782554381876E+05   4.77816660261528625E+05
             4.77852473874049727E+05   4.77888224470073765E+05   4.77923913758633018E+05   4.77959543786288064E+05   4.77995117078415002E+05
             4.78030636626178515E+05   4.78066103812170506E+05   4.78101512580000504E+05   4.78136855383318500E+05   4.78172125133983907E+05
             4.78207316381205223E+05   4.78242424285112415E+05   4.78277443524183065E+05   4.78312367071197717E+05   4.78347187632481277E+05
             4.78381901366881386E+05   4.78416520958436769E+05   4.78451062763974944E+05   4.78485542678564088E+05   4.78519975508118747E+05
             4.78554375703665952E+05   4.78588757783725450E+05   4.78623136741203838E+05   4.78657527654499107E+05   4.78691942610857426E+05
             4.78726381477087329E+05   4.78760841134897608E+05   4.78795318519678025E+05   4.78829810636679467E+05   4.78864314552804397E+05
             4.78898827337409952E+05   4.78933346030342160E+05   4.78967867676516762E+05
 ETA=    4   4.67689643760123814E+05   4.67705617886710388E+05   4.67721575441776193E+05   4.67737499853800633E+05   4.67753373837482883E+05
             4.67769177252402820E+05   4.67784889244360442E+05   4.67800491917236650E+05   4.67815979207237018E+05   4.67831348008648434E+05
             4.67846595220764109E+05   4.67861717762903601E+05   4.67876712559393083E+05   4.67891579352371045E+05   4.67906329155225656E+05
             4.67920975799157342E+05   4.67935533069386322E+05   4.67950014567210805E+05   4.67964433847948967E+05   4.67978802406757721E+05
             4.67993123498150264E+05   4.68007398316478997E+05   4.68021628678570036E+05   4.68035818891144299E+05   4.68049973883396189E+05
             4.68064098788010480E+05   4.68078199551632628E+05   4.68092282324398344E+05   4.68106352972901834E+05   4.68120416229571216E+05
             4.68134476543293335E+05   4.68148538618102553E+05   4.68162608178624534E+05   4.68176691204632341E+05   4.68190794135912496E+05
             4.68204925252303656E+05   4.68219093293657759E+05   4.68233305645782268E+05   4.68247564278306847E+05   4.68261869806816743E+05
             4.68276223224816495E+05   4.68290627037486469E+05   4.68305084127926326E+05   4.68319598052512098E+05   4.68334175060724316E+05
             4.68348822075320000E+05   4.68363545744829113E+05   4.68378351620872680E+05   4.68393244980844785E+05   4.68408231872417906E+05
             4.68423321424379479E+05   4.68438523535795277E+05   4.68453848241913598E+05   4.68469306122711394E+05   4.68484907894347853E+05
             4.68500663182373974E+05   4.68516577249907656E+05   4.68532654269458842E+05   4.68548898888512689E+05   4.68565317654456303E+05
             4.68581917589652236E+05   4.68598705377527804E+05   4.68615686345769034E+05   4.68632865483126487E+05   4.68650248624602391E+05
             4.68667844990204438E+05   4.68685664646192163E+05   4.68703717742962588E+05   4.68722014767463203E+05   4.68740566290779389E+05
             4.68759382049749023E+05   4.68778468444221071E+05   4.68797831039796816E+05   4.68817476642247697E+05   4.68837417018024367E+05
             4.68857665173747286E+05   4.68878233578705403E+05   4.68899132552861411E+05   4.68920371878846141E+05   4.68941960767514713E+05
             4.68963906142617983E+05   4.68986214356130920E+05   4.69008888942983642E+05   4.69031922169926926E+05   4.69055303486666642E+05
             4.69079021697895601E+05   4.69103063028254488E+05   4.69127413057370635E+05   4.69152057646158151E+05   4.69176983780677256E+05
             4.69202178728274943E+05   4.69227634493295453E+05   4.69253362028072763E+05   4.69279377021938330E+05   4.69305694888252707E+05
             4.69332329936492082E+05   4.69359296200161683E+05   4.69386609642828873E+05   4.69414293948309554E+05   4.69442374730481359E+05
             4.69470864098583290E+05   4.69499720143298444E+05   4.69528887450670765E+05   4.69558311932598008E+05   4.69587944804392115E+05
             4.69617738607219071E+05   4.69647648023606511E+05   4.69677636301530176E+05   4.69707668830328039E+05   4.69737717684291536E+05
             4.69767781677527237E+05   4.69797866309094941E+05   4.69827979883707187E+05   4.69858141928684490E+05   4.69888374776999990E+05
             4.69918699538506567E+05   4.69949132430576661E+05   4.69979688447462569E+05   4.70010380942312942E+05   4.70041216703860438E+05
             4.70072200879734010E+05   4.70103338396554871E+05   4.70134633296914224E+05   4.70166089402395824E+05   4.70197709344276169E+05
             4.70229490992603765E+05   4.70261431027119805E+05   4.70293526504162408E+05   4.70325775986455963E+05   4.70358178413321904E+05
             4.70390731679627264E+05   4.70423429502423271E+05   4.70456264554306923E+05   4.70489228758575919E+05   4.70522311041330278E+05
             4.70555499579370371E+05   4.70588783426481881E+05   4.70622155144390301E+05   4.70655608171806263E+05   4.70689135050721176E+05
             4.70722724736249715E+05   4.70756365286787739E+05   4.70790044358611223E+05   4.70823747999517247E+05   4.70857461855183414E+05
             4.70891171252003580E+05   4.70924860239237838E+05   4.70958512546862359E+05   4.70992111240020546E+05   4.71025636724522570E+05
             4.71059068741345895E+05   4.71092387359432236E+05   4.71125573959582543E+05   4.71158610250562371E+05   4.71191479201970622E+05
             4.71224168826740060E+05   4.71256668398636568E+05   4.71288967369642924E+05   4.71321055904608336E+05   4.71352924346598506E+05
             4.71384563432810653E+05   4.71415965476967103E+05   4.71447123186921410E+05   4.71478030698130606E+05   4.71508687856464880E+05
             4.71539095935398364E+05   4.71569256851339422E+05   4.71599175092436140E+05   4.71628855789771071E+05   4.71658303851269244E+05
             4.71687523292223923E+05   4.71716517904770910E+05   4.71745293391053739E+05   4.71773863093249092E+05   4.71802242263541324E+05
             4.71830446119753004E+05   4.71858489742257632E+05   4.71886388177066750E+05   4.71914156759776175E+05   4.71941811984319938E+05
             4.71969370634216408E+05   4.71996843229871825E+05   4.72024215239242883E+05   4.72051465867174091E+05   4.72078573927525140E+05
             4.72105516670216981E+05   4.72132270954185922E+05   4.72158816497406515E+05   4.72185144454006688E+05   4.72211248837152554E+05
             4.72237129455012036E+05   4.72262809295759420E+05   4.72288317142570741E+05   4.72313684874871280E+05   4.72338956757083361E+05
             4.72364180149879016E+05   4.72389401015026844E+05   4.72414659718683455E+05   4.72439995228102431E+05   4.72465443868067523E+05
             4.72491031393483456E+05   4.72516780916785123E+05   4.72542714766549587E+05   4.72568852135923458E+05   4.72595211434195167E+05
             4.72621812020324753E+05   4.72648677051956474E+05   4.72675830636405968E+05   4.72703294348571741E+05   4.72731079633684305E+05
             4.72759195404557220E+05   4.72787651561701612E+05   4.72816461956419516E+05   4.72845641427710536E+05   4.72875204834235599E+05
             4.72905167113300879E+05   4.72935543221873755E+05   4.72966342984979274E+05   4.72997555699872959E+05   4.73029165531868173E+05
             4.73061157162456424E+05   4.73093517337843427E+05   4.73126233320413216E+05   4.73159292935505044E+05   4.73192686260278220E+05
             4.73226403934847389E+05   4.73260434282126313E+05   4.73294756356226164E+05   4.73329346894057118E+05   4.73364183912968903E+05
             4.73399250552068057E+05   4.73434531230900553E+05   4.73470009587416251E+05   4.73505666133181308E+05   4.73541480598165537E+05
             4.73577434591905854E+05   4.73613517242206202E+05   4.73649719556437340E+05   4.73686033082861686E+05   4.73722451533308602E+05
             4.73758969160499400E+05   4.73795577279072604E+05   4.73832255451336910E+05   4.73868980301518284E+05   4.73905729822610447E+05
             4.73942487482676923E+05   4.73979238118549052E+05   4.74015964042164094E+05   4.74052637465884036E+05   4.74089228077176609E+05
             4.74125705153805960E+05   4.74162036334719858E+05   4.74198188849161903E+05   4.74234136520496453E+05   4.74269879548569501E+05
             4.74305424727347447E+05   4.74340777862073446E+05   4.74375940803097154E+05   4.74410914412044978E+05   4.74445699593090045E+05
             4.74480297420592047E+05   4.74514709011457395E+05   4.74548940886280267E+05   4.74583021180405398E+05   4.74616983432865236E+05
             4.74650861115029955E+05   4.74684687427620112E+05   4.74718495503694343E+05   4.74752318178971123E+05   4.74786187099809933E+05
             4.74820133615230734E+05   4.74854184437849210E+05   4.74888347734665207E+05   4.74922627036274469E+05   4.74957026484670758E+05
             4.74991552667438111E+05   4.75026212783558527E+05   4.75061010597003100E+05   4.75095936131699360E+05   4.75130975976564223E+05
             4.75166123748654441E+05   4.75201401177587337E+05   4.75236837021120533E+05   4.75272455750688678E+05   4.75308264692436147E+05
             4.75344266886184225E+05   4.75380469332567649E+05   4.75416894875473983E+05   4.75453570319603663E+05   4.75490514112503908E+05
             4.75527711273106921E+05   4.75565138463191630E+05   4.75602774760489003E+05   4.75640608906539099E+05   4.75678632058834424E+05
             4.75716837597437319E+05   4.75755227792690101E+05   4.75793807137505151E+05   4.75832573912808090E+05   4.75871501551578869E+05
             4.75910557274810504E+05   4.75949711583082855E+05   4.75988948095321597E+05   4.76028253710039193E+05   4.76067613832419389E+05
             4.76107007894332637E+05   4.76146413834320963E+05   4.76185812747049553E+05   4.76225198351676518E+05   4.76264567523483245E+05
             4.76303915848419536E+05   4.76343233755109890E+05   4.76382510382847511E+05   4.76421737587426673E+05   4.76460918090646912E+05
             4.76500057330808777E+05   4.76539157718683651E+05   4.76578209554925386E+05   4.76617200112658727E+05   4.76656119392249908E+05
             4.76694968303032278E+05   4.76733750481580792E+05   4.76772468398554309E+05   4.76811119860947132E+05   4.76849701509837585E+05
             4.76888210392632056E+05   4.76926645182050881E+05   4.76965004957142519E+05   4.77003288466959668E+05   4.77041493140572216E+05
             4.77079616077054350E+05   4.77117654068309115E+05   4.77155602677556453E+05   4.77193457160845050E+05   4.77231213621091505E+05
             4.77268871548681869E+05   4.77306431280870107E+05   4.77343892771270184E+05   4.77381254438938398E+05   4.77418514319291164E+05
             4.77455670779768494E+05   4.77492723515903461E+05   4.77529672555252910E+05   4.77566518390677928E+05   4.77603263376258546E+05
             4.77639910331379331E+05   4.77676462227845215E+05   4.77712922647141793E+05   4.77749295323174971E+05   4.77785584597200854E+05
             4.77821797239876178E+05   4.77857940629207995E+05   4.77894020638371410E+05   4.77930037121213390E+05   4.77965988426748896E+05
             4.78001873516499472E+05   4.78037693802012131E+05   4.78073451307340874E+05   4.78109148379746650E+05   4.78144788659320329E+05
             4.78180376109360310E+05   4.78215912748451694E+05   4.78251392816326930E+05   4.78286808608005464E+05   4.78322153090381471E+05
             4.78357421917848522E+05   4.78392611416674743E+05   4.78427717294906266E+05   4.78462732787700719E+05   4.78497650511993503E+05
             4.78532466989377514E+05   4.78567194360076857E+05   4.78601848668973311E+05   4.78636445497677312E+05   4.78670998574714817E+05
             4.78705521165340440E+05   4.78740026694307395E+05   4.78774529224362923E+05   4.78809042977752921E+05   4.78843579305655730E+05
             4.78878138074980816E+05   4.78912716281569970E+05   4.78947310968085949E+05   4.78981919364474015E+05   4.79016538747499930E+05
             4.79051166388724174E+05   4.79085799538884254E+05   4.79120435443512339E+05
 ETA=    5   4.67799157241568901E+05   4.67815269177607552E+05   4.67831363315850263E+05   4.67847421889765072E+05   4.67863426105366321E+05
             4.67879354574110010E+05   4.67895184885143128E+05   4.67910897246008331E+05   4.67926485867203679E+05   4.67941947585874004E+05
             4.67957286527731514E+05   4.67972491858207562E+05   4.67987560105516750E+05   4.68002490637904906E+05   4.68017295452388702E+05
             4.68031989393808588E+05   4.68046587828203512E+05   4.68061104766569217E+05   4.68075554748136550E+05   4.68089950488949136E+05
             4.68104294655851671E+05   4.68118588097661908E+05   4.68132833436731191E+05   4.68147033784505038E+05   4.68161194034152315E+05
             4.68175320136761817E+05   4.68189417229847633E+05   4.68203491520712792E+05   4.68217548652151308E+05   4.68231593856410298E+05
             4.68245631815861794E+05   4.68259667863212992E+05   4.68273707662355679E+05   4.68287757555333548E+05   4.68301824610623356E+05
             4.68315917361882806E+05   4.68330045111161598E+05   4.68344216974772979E+05   4.68358434080582228E+05   4.68372697433511377E+05
             4.68387008300898597E+05   4.68401369773813582E+05   4.68415785277405579E+05   4.68430258717585646E+05   4.68444797322597762E+05
             4.68459408889641869E+05   4.68474103090997145E+05   4.68488882604778628E+05   4.68503752107664943E+05   4.68518716697827447E+05
             4.68533785479007754E+05   4.68548968119561207E+05   4.68564274186428578E+05   4.68579714139916701E+05   4.68595298521415854E+05
             4.68611037871854438E+05   4.68626935854003474E+05   4.68642996370788198E+05   4.68659223548827809E+05   4.68675623839568696E+05
             4.68692204189907992E+05   4.68708971084510151E+05   4.68725929437859508E+05   4.68743084011524392E+05   4.68760439630662324E+05
             4.68778005728140997E+05   4.68795792164868384E+05   4.68813808736582403E+05   4.68832065451309085E+05   4.68850572657004057E+05
             4.68869339982038364E+05   4.68888372683193244E+05   4.68907675734583056E+05   4.68927252759345283E+05   4.68947118000054150E+05
             4.68967284830363409E+05   4.68987766016997572E+05   4.69008571446494723E+05   4.69029710920740792E+05   4.69051193832165503E+05
             4.69073026233785087E+05   4.69095214321228210E+05   4.69117759414115164E+05   4.69140656808022701E+05   4.69163897469022777E+05
             4.69187471428644378E+05   4.69211365831888164E+05   4.69235567371085461E+05   4.69260062965402263E+05   4.69284840617008973E+05
             4.69309888947537402E+05   4.69335201844822674E+05   4.69360789188901370E+05   4.69386666431960592E+05   4.69412848124980577E+05
             4.69439348612436850E+05   4.69466181586168706E+05   4.69493362092075753E+05   4.69520914803581196E+05   4.69548865944470861E+05
             4.69577235086312343E+05   4.69605974878882931E+05   4.69635031411388598E+05   4.69664350865237648E+05   4.69693887751063332E+05
             4.69723596754359955E+05   4.69753433275103103E+05   4.69783365173521044E+05   4.69813361064967350E+05   4.69843403729189478E+05
             4.69873481384215644E+05   4.69903596447075426E+05   4.69933753278962511E+05   4.69963970585256291E+05   4.69994269026648661E+05
             4.70024667757635238E+05   4.70055180977404409E+05   4.70085821381481539E+05   4.70116598880187550E+05   4.70147520949649333E+05
             4.70178592290543253E+05   4.70209818077977397E+05   4.70241201094816613E+05   4.70272744596910896E+05   4.70304451265596261E+05
             4.70336317182260449E+05   4.70368337850038020E+05   4.70400504931583710E+05   4.70432821686037001E+05   4.70465287559066783E+05
             4.70497901498133200E+05   4.70530656645329262E+05   4.70563545642689161E+05   4.70596560880587902E+05   4.70629690375729406E+05
             4.70662921894404455E+05   4.70696240596624790E+05   4.70729643318985531E+05   4.70763124320991803E+05   4.70796677359956026E+05
             4.70830291343646881E+05   4.70863954704070347E+05   4.70897655928722816E+05   4.70931380719629757E+05   4.70965114897906780E+05
             4.70998841712566325E+05   4.71032548311456572E+05   4.71066219411534141E+05   4.71099839175899280E+05   4.71133388351523376E+05
             4.71166847334256512E+05   4.71200196945554577E+05   4.71233419014416228E+05   4.71266496107751271E+05   4.71299412208616035E+05
             4.71332155067509972E+05   4.71364714296792808E+05   4.71397079178858083E+05   4.71429240223558911E+05   4.71461188134699420E+05
             4.71492913725636550E+05   4.71524409626283101E+05   4.71555669186302053E+05   4.71586688293988525E+05   4.71617464729262399E+05
             4.71647999456771300E+05   4.71678293527379225E+05   4.71708351313692983E+05   4.71738177860233176E+05   4.71767777792750276E+05
             4.71797154619892826E+05   4.71826311929479009E+05   4.71855254959402198E+05   4.71883996591544710E+05   4.71912551748723374E+05
             4.71940935307047737E+05   4.71969161703554913E+05   4.71997245577492169E+05   4.72025202167023614E+05   4.72053047109963663E+05
             4.72080796771017136E+05   4.72108463309653627E+05   4.72136033162619278E+05   4.72163488624727877E+05   4.72190811087225273E+05
             4.72217981065797328E+05   4.72244978242846671E+05   4.72271784004866553E+05   4.72298394605079258E+05   4.72324808096862864E+05
             4.72351035594210436E+05   4.72377087179020164E+05   4.72402986023213598E+05   4.72428757623095706E+05   4.72454442856210226E+05
             4.72480084942125424E+05   4.72505725742189330E+05   4.72531400211060885E+05   4.72557141981095541E+05   4.72582982073124556E+05
             4.72608947453727480E+05   4.72635062674145389E+05   4.72661351715255994E+05   4.72687833886330773E+05   4.72714528319388337E+05
             4.72741454846410605E+05   4.72768636992431886E+05   4.72796099612812221E+05   4.72823867575252603E+05   4.72851951246553683E+05
             4.72880361841505743E+05   4.72909110442050151E+05   4.72938213233506889E+05   4.72967687423948606E+05   4.72997550308809557E+05
             4.73027817264136742E+05   4.73058505171529716E+05   4.73089625976079085E+05   4.73121166708658740E+05   4.73153111257287150E+05
             4.73185443192600971E+05   4.73218147586753825E+05   4.73251210895597760E+05   4.73284619905140135E+05   4.73318362438339449E+05
             4.73352428241471935E+05   4.73386806926651567E+05   4.73421473631381814E+05   4.73456404942558380E+05   4.73491577481513203E+05
             4.73526973890470574E+05   4.73562578233216947E+05   4.73598373351199611E+05   4.73634338047308498E+05   4.73670451099482831E+05
             4.73706692190788221E+05   4.73743053079080535E+05   4.73779527427990513E+05   4.73816109444767353E+05   4.73852794343167392E+05
             4.73889578636555176E+05   4.73926456794779107E+05   4.73963407580783358E+05   4.74000408186833316E+05   4.74037428426281607E+05
             4.74074458895390795E+05   4.74111483075687545E+05   4.74148482745543355E+05   4.74185426241340640E+05   4.74222280309679103E+05
             4.74259011777369247E+05   4.74295584267883096E+05   4.74331961545509927E+05   4.74368112532446918E+05   4.74404044389379502E+05
             4.74439769493155880E+05   4.74475298979172774E+05   4.74510639655419160E+05   4.74545797095964663E+05   4.74580776768824377E+05
             4.74615584458543570E+05   4.74650225850513845E+05   4.74684711378328328E+05   4.74719067061103298E+05   4.74753323731008859E+05
             4.74787511616058066E+05   4.74821661470180785E+05   4.74855803464147437E+05   4.74889966746101854E+05   4.74924180268813681E+05
             4.74958471977876150E+05   4.74992864167867461E+05   4.75027362374804798E+05   4.75061966540231486E+05   4.75096677712365112E+05
             4.75131498327362817E+05   4.75166431961026450E+05   4.75201480416408041E+05   4.75236626482521591E+05   4.75271851213745598E+05
             4.75307134273996286E+05   4.75342512196322496E+05   4.75378020246728265E+05   4.75413690521003795E+05   4.75449533203860628E+05
             4.75485555360691040E+05   4.75521768023228215E+05   4.75558199882779561E+05   4.75594883865225245E+05   4.75631851856968424E+05
             4.75669079690818558E+05   4.75706542716569849E+05   4.75744216576684499E+05   4.75782091254221159E+05   4.75820157577516919E+05
             4.75858407239937223E+05   4.75896844217355247E+05   4.75935473790347285E+05   4.75974304567677027E+05   4.76013299945902603E+05
             4.76052427031328029E+05   4.76091655281534768E+05   4.76130970380766026E+05   4.76170360608815914E+05   4.76209811778427276E+05
             4.76249304774589429E+05   4.76288818146673031E+05   4.76328333488373784E+05   4.76367844130424550E+05   4.76407346521456609E+05
             4.76446835095918330E+05   4.76486299846152950E+05   4.76525728781445941E+05   4.76565112529031641E+05   4.76604454057910130E+05
             4.76643758983623586E+05   4.76683035962049791E+05   4.76722267724580306E+05   4.76761440098850057E+05   4.76800541731886275E+05
             4.76839573157365143E+05   4.76878537866476632E+05   4.76917438162729959E+05   4.76956270917890710E+05   4.76995032040965278E+05
             4.77033716486688238E+05   4.77072323864408885E+05   4.77110853144046734E+05   4.77149302881892363E+05   4.77187669916441606E+05
             4.77225951008124568E+05   4.77264142727959901E+05   4.77302239691401424E+05   4.77340236694220454E+05   4.77378128223405860E+05
             4.77415915075755620E+05   4.77453598145526776E+05   4.77491177705705573E+05   4.77528652385533031E+05   4.77566020551422844E+05
             4.77603280810643570E+05   4.77640433140071575E+05   4.77677478067757795E+05   4.77714417339484848E+05   4.77751252407097141E+05
             4.77787986214560515E+05   4.77824621457770583E+05   4.77861162062721036E+05   4.77897611950515071E+05   4.77933975354874565E+05
             4.77970259629308130E+05   4.78006472654534096E+05   4.78042623040816514E+05   4.78078708244604524E+05   4.78114726635610859E+05
             4.78150676735357731E+05   4.78186560582590231E+05   4.78222380520521489E+05   4.78258138781637652E+05   4.78293839798833651E+05
             4.78329488017141935E+05   4.78365087722982338E+05   4.78400631849601050E+05   4.78436113289739005E+05   4.78471525337298692E+05
             4.78506864704359497E+05   4.78542128641051706E+05   4.78577313693709264E+05   4.78612413650897040E+05   4.78647421787599218E+05
             4.78682333885944448E+05   4.78717162552424474E+05   4.78751923105648602E+05   4.78786630398701061E+05   4.78821297070195375E+05
             4.78855935386097524E+05   4.78890557786356250E+05   4.78925177357237844E+05   4.78959807373711490E+05   4.78994458527174604E+05
             4.79029130576440366E+05   4.79063820701557037E+05   4.79098526057127921E+05   4.79133244139542920E+05   4.79167972425388929E+05
             4.79202708342707832E+05   4.79237449375637399E+05   4.79272192959823646E+05
 ETA=    6   4.67907778359437769E+05   4.67924043329182547E+05   4.67940289307170431E+05   4.67956497328033962E+05   4.67972647220535029E+05
             4.67988716215467080E+05   4.68004680338937673E+05   4.68020518214546668E+05   4.68036223999999813E+05   4.68051794456579955E+05
             4.68067234289510990E+05   4.68082531594930333E+05   4.68097682500794530E+05   4.68112686117728299E+05   4.68127555300693435E+05
             4.68142305897817598E+05   4.68156954534454213E+05   4.68171515940632729E+05   4.68186005633201450E+05   4.68200436609322962E+05
             4.68214811889325036E+05   4.68229131977743411E+05   4.68243399710139958E+05   4.68257617600715021E+05   4.68271790504675708E+05
             4.68285924734761997E+05   4.68300025080209482E+05   4.68314097800232354E+05   4.68328148112526280E+05   4.68342181955921405E+05
             4.68356204237862665E+05   4.68370220720057492E+05   4.68384237213915971E+05   4.68398260411936033E+05   4.68412297882646148E+05
             4.68426358554612845E+05   4.68440452274033858E+05   4.68454588691585930E+05   4.68468769310384174E+05   4.68482995501932281E+05
             4.68497268889654253E+05   4.68511593088123598E+05   4.68525972038972133E+05   4.68540410114527738E+05   4.68554915427229775E+05
             4.68569496614512813E+05   4.68584164278919401E+05   4.68598920361521654E+05   4.68613768902804470E+05   4.68628714271332836E+05
             4.68643765377322910E+05   4.68658931611477979E+05   4.68674222171006550E+05   4.68689647360722185E+05   4.68705217482717242E+05
             4.68720942995600111E+05   4.68736827045366750E+05   4.68752873183378892E+05   4.68769085156490386E+05   4.68785469271351467E+05
             4.68802032303840679E+05   4.68818780521157430E+05   4.68835718547647877E+05   4.68852850807020674E+05   4.68870181660585979E+05
             4.68887720337821112E+05   4.68905476366184303E+05   4.68923459258543211E+05   4.68941678615492885E+05   4.68960144415522111E+05
             4.68978865985448181E+05   4.68997847787217295E+05   4.69017094049334177E+05   4.69036607386014715E+05   4.69056402518659714E+05
             4.69076493014903564E+05   4.69096891948805423E+05   4.69117608948493085E+05   4.69138653642578865E+05   4.69160035382785019E+05
             4.69181759767204581E+05   4.69203832638909807E+05   4.69226254944444576E+05   4.69249023351206386E+05   4.69272130148268130E+05
             4.69295566699587216E+05   4.69319321114315942E+05   4.69343381036568666E+05   4.69367734387032280E+05   4.69392370357369771E+05
             4.69417278794854064E+05   4.69442454832306306E+05   4.69467908020898874E+05   4.69493653492412588E+05   4.69519705268068821E+05
             4.69546077501416439E+05   4.69572783484851359E+05   4.69599837720085867E+05   4.69627265578109305E+05   4.69655093845546944E+05
             4.69683344063393655E+05   4.69711968930527044E+05   4.69740915996143769E+05   4.69770132420960697E+05   4.69799575303127815E+05
             4.69829201451679750E+05   4.69858967836500553E+05   4.69888846064887941E+05   4.69918807959849655E+05   4.69948839973233640E+05
             4.69978926770921971E+05   4.70009067694075755E+05   4.70039263766673510E+05   4.70069532279296836E+05   4.70099892222515133E+05
             4.70130360890332202E+05   4.70160950373819272E+05   4.70191671072448953E+05   4.70222530701070908E+05   4.70253536186610407E+05
             4.70284691782477312E+05   4.70316002514105872E+05   4.70347470305149734E+05   4.70379097848036967E+05   4.70410887475108262E+05
             4.70442833882114734E+05   4.70474931401018926E+05   4.70507169935511949E+05   4.70539553830528166E+05   4.70572083035479707E+05
             4.70604757193142548E+05   4.70637569225352723E+05   4.70670511742818402E+05   4.70703577289646608E+05   4.70736753287549072E+05
             4.70770027091993485E+05   4.70803382954469183E+05   4.70836819016208930E+05   4.70870330350085802E+05   4.70903911664622719E+05
             4.70937552086999989E+05   4.70971240410003986E+05   4.71004965670754144E+05   4.71038713524452702E+05   4.71072469938448281E+05
             4.71106217966002238E+05   4.71139946020991541E+05   4.71173639753157040E+05   4.71207284326469176E+05   4.71240860988507106E+05
             4.71274350706104131E+05   4.71307734955988708E+05   4.71340996216169500E+05   4.71374117782779562E+05   4.71407084280051291E+05
             4.71439883726026688E+05   4.71472505905473314E+05   4.71504940206528176E+05   4.71537177385758376E+05   4.71569208310099377E+05
             4.71601023914546065E+05   4.71632617311156355E+05   4.71663982265045866E+05   4.71695115135591477E+05   4.71726013145906152E+05
             4.71756676732762251E+05   4.71787106369201036E+05   4.71817306228358706E+05   4.71847281081262568E+05   4.71877035214881180E+05
             4.71906571864035970E+05   4.71935894259549794E+05   4.71965007134904619E+05   4.71993923092032317E+05   4.72022656620224880E+05
             4.72051222148808942E+05   4.72079633665323199E+05   4.72107905348913628E+05   4.72136052011184860E+05   4.72164088810895511E+05
             4.72192031678461644E+05   4.72219893001678749E+05   4.72247661616294878E+05   4.72275322901500971E+05   4.72302860855827050E+05
             4.72330259252713062E+05   4.72357500578154984E+05   4.72384568317947560E+05   4.72411463428623741E+05   4.72438187977396534E+05
             4.72464756398469443E+05   4.72491173856225621E+05   4.72517457915795501E+05   4.72543627828132012E+05   4.72569720976566663E+05
             4.72595776477318432E+05   4.72621831510505639E+05   4.72647916237790196E+05   4.72674058972640429E+05   4.72700285691209370E+05
             4.72726624395704886E+05   4.72753100987059413E+05   4.72779740328305343E+05   4.72806562744637311E+05   4.72833587938022160E+05
             4.72860835608720139E+05   4.72888330468217027E+05   4.72916097884166462E+05   4.72944162839321303E+05   4.72972538052361284E+05
             4.73001236754389596E+05   4.73030271067293244E+05   4.73059660026386264E+05   4.73089422816767241E+05   4.73119578041037370E+05
             4.73150143073504674E+05   4.73181136225607304E+05   4.73212569311365951E+05   4.73244429953550803E+05   4.73276701152736030E+05
             4.73309364916291670E+05   4.73342405654157687E+05   4.73375808473899378E+05   4.73409558130797232E+05   4.73443641722626751E+05
             4.73478047581065854E+05   4.73512763255353144E+05   4.73547763881049410E+05   4.73583025356592902E+05   4.73618522867755848E+05
             4.73654239081298583E+05   4.73690157241160225E+05   4.73726258684303553E+05   4.73762521639268845E+05   4.73798923525676713E+05
             4.73835442260489741E+05   4.73872072415177070E+05   4.73908809963455074E+05   4.73945651227666240E+05   4.73982593707186752E+05
             4.74019635917705076E+05   4.74056774226253270E+05   4.74093988026317267E+05   4.74131254952389281E+05   4.74168543068459490E+05
             4.74205843793265987E+05   4.74243139188118046E+05   4.74280409484641103E+05   4.74317620182525367E+05   4.74354735043621622E+05
             4.74391717699519068E+05   4.74428528521971370E+05   4.74465127802343457E+05   4.74501481519960740E+05   4.74537601867228979E+05
             4.74573506780597090E+05   4.74609212367754662E+05   4.74644730708645598E+05   4.74680072066121968E+05   4.74715246090522618E+05
             4.74750263620110170E+05   4.74785134892006696E+05   4.74819873518679116E+05   4.74854504173846799E+05   4.74889054965004208E+05
             4.74923552747463924E+05   4.74958025960423867E+05   4.74992501797498553E+05   4.75027005678410933E+05   4.75061563899371715E+05
             4.75096201000156754E+05   4.75130935149314697E+05   4.75165769046310044E+05   4.75200699057535152E+05   4.75235722633372177E+05
             4.75270838655513420E+05   4.75306047083294776E+05   4.75341346462729794E+05   4.75376713696837425E+05   4.75412124312356696E+05
             4.75447552366869349E+05   4.75483040856620937E+05   4.75518631501133204E+05   4.75554362954260199E+05   4.75590249253122427E+05
             4.75626301414963731E+05   4.75662534454659850E+05   4.75698982994745660E+05   4.75735685899862729E+05   4.75772680774369219E+05
             4.75809942131089803E+05   4.75847443803270929E+05   4.75885159081813355E+05   4.75923078281587223E+05   4.75961191758069443E+05
             4.75999490146782366E+05   4.76037978633978462E+05   4.76076663128263666E+05   4.76115554318051785E+05   4.76154613928785373E+05
             4.76193808834891941E+05   4.76233107997517101E+05   4.76272498696814757E+05   4.76311970528956444E+05   4.76351510047418473E+05
             4.76391099299310416E+05   4.76430717408711032E+05   4.76470346823713044E+05   4.76509980162452324E+05   4.76549613428974408E+05
             4.76589240208841977E+05   4.76628849775523529E+05   4.76668429002382385E+05   4.76707967420635279E+05   4.76747468127050437E+05
             4.76786936897551292E+05   4.76826382851020840E+05   4.76865786945571017E+05   4.76905133537462854E+05   4.76944409998252057E+05
             4.76983616449975176E+05   4.77022756177244300E+05   4.77061831233529316E+05   4.77100837701801502E+05   4.77139770675265579E+05
             4.77178624137318693E+05   4.77217397612862871E+05   4.77256089857015701E+05   4.77294699243697163E+05   4.77333222108867893E+05
             4.77371654766190914E+05   4.77409993424391956E+05   4.77448232006120612E+05   4.77486364722969302E+05   4.77524385444707703E+05
             4.77562295408378064E+05   4.77600095942419255E+05   4.77637787724494003E+05   4.77675369620664220E+05   4.77712840224922926E+05
             4.77750198384048301E+05   4.77787444455760473E+05   4.77824579376945389E+05   4.77861605397047824E+05   4.77898523902927293E+05
             4.77935337880834122E+05   4.77972049951390480E+05   4.78008664261459955E+05   4.78045184843735246E+05   4.78081615952683904E+05
             4.78117965464117005E+05   4.78154241695860517E+05   4.78190454046719184E+05   4.78226599585198099E+05   4.78262676646586449E+05
             4.78298683568826702E+05   4.78334622812839691E+05   4.78370496993092936E+05   4.78406308432713733E+05   4.78442062191284844E+05
             4.78477763157723297E+05   4.78513416423048824E+05   4.78549015115590882E+05   4.78584552679737855E+05   4.78620022903767531E+05
             4.78655423428816197E+05   4.78690752365607303E+05   4.78726007073483488E+05   4.78761181976893102E+05   4.78796270924662938E+05
             4.78831269959531084E+05   4.78866191235610342E+05   4.78901049293182848E+05   4.78935858232585946E+05   4.78970629671932897E+05
             4.79005374873913592E+05   4.79040105300959724E+05   4.79074833075416216E+05   4.79109570533276070E+05   4.79144327614808397E+05
             4.79179104070247267E+05   4.79213897260802449E+05   4.79248704484928690E+05   4.79283523472998233E+05   4.79318351901728602E+05
             4.79353187365422433E+05   4.79388027569355851E+05   4.79422870141889260E+05
 ETA=    7   4.68015284022836247E+05   4.68031720637316117E+05   4.68048137090327276E+05   4.68064513220401306E+05   4.68080827969583450E+05
             4.68097056693974824E+05   4.68113173853190616E+05   4.68129157607149566E+05   4.68145000916985678E+05   4.68160700444136455E+05
             4.68176252692546230E+05   4.68191653536186612E+05   4.68206898691535753E+05   4.68221987394858210E+05   4.68236932961564453E+05
             4.68251752226851124E+05   4.68266461967885378E+05   4.68281078729716246E+05   4.68295618999362749E+05   4.68310096543070045E+05
             4.68324514243986399E+05   4.68338872264485573E+05   4.68353171542549040E+05   4.68367416118588299E+05   4.68381610808622267E+05
             4.68395760677220824E+05   4.68409871783157985E+05   4.68423950433758495E+05   4.68438002739439253E+05   4.68452034022984619E+05
             4.68466049410271051E+05   4.68480054344900243E+05   4.68494055541375477E+05   4.68508060031925328E+05   4.68522075405382435E+05
             4.68536111476995400E+05   4.68550178618616774E+05   4.68564285758750630E+05   4.68578436052507197E+05   4.68592631211648171E+05
             4.68606873400479439E+05   4.68621166593483300E+05   4.68635515217686247E+05   4.68649924534552381E+05   4.68664403143296309E+05
             4.68678960477570188E+05   4.68693604958438664E+05   4.68708340956616390E+05   4.68723171830230451E+05   4.68738101887224126E+05
             4.68753139234804898E+05   4.68768292929996445E+05   4.68783572185020195E+05   4.68798986832888273E+05   4.68814546861810610E+05
             4.68830261114310240E+05   4.68846133850162616E+05   4.68862168183456117E+05   4.68878367794071848E+05   4.68894738625060592E+05
             4.68911287185265683E+05   4.68928019561559253E+05   4.68944940152928641E+05   4.68962052936389926E+05   4.68979362738966651E+05
             4.68996877787711797E+05   4.69014607159685867E+05   4.69032559998942132E+05   4.69050745717504818E+05   4.69069173794390983E+05
             4.69087852687279985E+05   4.69106786768499878E+05   4.69125979389041313E+05   4.69145435610829794E+05   4.69165167339530832E+05
             4.69185188191745256E+05   4.69205511063314334E+05   4.69226145967042597E+05   4.69247102194975072E+05   4.69268388378152216E+05
             4.69290010503595578E+05   4.69311973897321848E+05   4.69334281904998119E+05   4.69356929950892576E+05   4.69379911478923343E+05
             4.69403219100996677E+05   4.69426842100969341E+05   4.69450768930686230E+05   4.69474988459047046E+05   4.69499491223172459E+05
             4.69524268177238351E+05   4.69549314238685125E+05   4.69574640178011439E+05   4.69600260728980356E+05   4.69626190308586345E+05
             4.69652442066748394E+05   4.69679028836616839E+05   4.69705965860879573E+05   4.69733278020375583E+05   4.69760992605481355E+05
             4.69789123849831871E+05   4.69817633760094643E+05   4.69846471286195563E+05   4.69875587036299810E+05   4.69904938251529646E+05
             4.69934483831246616E+05   4.69964185357371520E+05   4.69994015142062213E+05   4.70023948180035572E+05   4.70053963010696752E+05
             4.70084052352202649E+05   4.70114212467398436E+05   4.70144443128658109E+05   4.70174758146471519E+05   4.70205174840857566E+05
             4.70235708995759604E+05   4.70266370250819076E+05   4.70297166709602228E+05   4.70328105759613100E+05   4.70359191924106737E+05
             4.70390429010276683E+05   4.70421820545817958E+05   4.70453368940434535E+05   4.70485076324332273E+05   4.70516943333210016E+05
             4.70548964624737855E+05   4.70581133362078399E+05   4.70613443923322600E+05   4.70645895546273270E+05   4.70678488683661097E+05
             4.70711222476141411E+05   4.70744090816067415E+05   4.70777086283716664E+05   4.70810200519996346E+05   4.70843421408331487E+05
             4.70876735892776516E+05   4.70910132405628043E+05   4.70943605332149949E+05   4.70977150545848417E+05   4.71010762797363626E+05
             4.71044432345873152E+05   4.71078148327688803E+05   4.71111899369499006E+05   4.71145672059499484E+05   4.71179452476262522E+05
             4.71213226772093622E+05   4.71246981394231319E+05   4.71280702863647195E+05   4.71314376856686955E+05   4.71347985671193921E+05
             4.71381510760385368E+05   4.71414933985696058E+05   4.71448238841429586E+05   4.71481409230107034E+05   4.71514430037344049E+05
             4.71547290081135521E+05   4.71579979162570962E+05   4.71612487257771369E+05   4.71644805042983440E+05   4.71676923369484954E+05
             4.71708833610164642E+05   4.71740529224353668E+05   4.71772004192993918E+05   4.71803253452176112E+05   4.71834275758586591E+05
             4.71865070824060647E+05   4.71895639129624818E+05   4.71925984233071678E+05   4.71956110461385048E+05   4.71986021875103004E+05
             4.72015721468979900E+05   4.72045211971323995E+05   4.72074497979520180E+05   4.72103591567259340E+05   4.72132506677308585E+05
             4.72161257203011715E+05   4.72189856840019114E+05   4.72218319234557508E+05   4.72246658333727275E+05   4.72274889288122591E+05
             4.72303027549210936E+05   4.72331084061345144E+05   4.72359051740418770E+05   4.72386918995210552E+05   4.72414673704775865E+05
             4.72442301629276364E+05   4.72469787999150169E+05   4.72497121509597113E+05   4.72524304714864003E+05   4.72551343633959303E+05
             4.72578245272541710E+05   4.72605020582871453E+05   4.72631681503859058E+05   4.72658243815156224E+05   4.72684738659380120E+05
             4.72711201019889035E+05   4.72737663870029035E+05   4.72764152143096318E+05   4.72790688762374863E+05   4.72817297350932145E+05
             4.72844004330970638E+05   4.72870836824476311E+05   4.72897820779654954E+05   4.72924977449590981E+05   4.72952326913588506E+05
             4.72979890173589287E+05   4.73007691922085127E+05   4.73035757774205587E+05   4.73064111546413042E+05   4.73092769860501634E+05
             4.73121747539598320E+05   4.73151060380876996E+05   4.73180728077698033E+05   4.73210771297468920E+05   4.73241210444324999E+05
             4.73272064869313966E+05   4.73303353660211782E+05   4.73335089644565480E+05   4.73367260609006917E+05   4.73399848079939198E+05
             4.73432833868537680E+05   4.73466200925067591E+05   4.73499932484566292E+05   4.73534012307279510E+05   4.73568426254285732E+05
             4.73603160711871693E+05   4.73638200134474493E+05   4.73673521249132871E+05   4.73709098851035873E+05   4.73744908950790472E+05
             4.73780932420675177E+05   4.73817151348386251E+05   4.73853546769861830E+05   4.73890095514006447E+05   4.73926773357966507E+05
             4.73963559790240775E+05   4.74000449144737155E+05   4.74037439466715674E+05   4.74074529188043263E+05   4.74111718287012947E+05
             4.74149007128524303E+05   4.74186392357511737E+05   4.74223855739049497E+05   4.74261375318246544E+05   4.74298929566066538E+05
             4.74336498656892159E+05   4.74374063190960849E+05   4.74411600460038171E+05   4.74449074522003124E+05   4.74486446126263007E+05
             4.74523675367517571E+05   4.74560719721636968E+05   4.74597536009784031E+05   4.74634092160560947E+05   4.74670400532328640E+05
             4.74706484590887325E+05   4.74742366378204082E+05   4.74778062240912230E+05   4.74813587101811834E+05   4.74848955857217254E+05
             4.74884183297499840E+05   4.74919284186545294E+05   4.74954275059308216E+05   4.74989179535018804E+05   4.75024023003976035E+05
             4.75058830660817272E+05   4.75093626917532471E+05   4.75128435990449856E+05   4.75163281580241513E+05   4.75198185324954917E+05
             4.75233168346981518E+05   4.75268247061614762E+05   4.75303419055756647E+05   4.75338677209211106E+05   4.75374014989135787E+05
             4.75409428212102561E+05   4.75444913282036781E+05   4.75480462200080801E+05   4.75516049356244621E+05   4.75551644737754774E+05
             4.75587231344402069E+05   4.75622844226232555E+05   4.75658531445856381E+05   4.75694335545584094E+05   4.75730276986528770E+05
             4.75766370709504175E+05   4.75802636602250626E+05   4.75839114340214815E+05   4.75875848545770394E+05   4.75912871748968435E+05
             4.75950168110572384E+05   4.75987709699023224E+05   4.76025471527587099E+05   4.76063440388829855E+05   4.76101606020142557E+05
             4.76139960933512659E+05   4.76178508739315497E+05   4.76217255822522857E+05   4.76256201928394439E+05   4.76295320243340393E+05
             4.76334577314058493E+05   4.76373943740472430E+05   4.76413406335409556E+05   4.76452955964923196E+05   4.76492581629748049E+05
             4.76532264869345119E+05   4.76571985357856494E+05   4.76611725417567708E+05   4.76651477963335929E+05   4.76691238558161713E+05
             4.76731001129115641E+05   4.76770753059550188E+05   4.76810480096888379E+05   4.76850171352008998E+05   4.76889829389616323E+05
             4.76929460137870221E+05   4.76969065679733059E+05   4.77008632717375702E+05   4.77048144107771281E+05   4.77087586065875192E+05
             4.77126958238573628E+05   4.77166263630735280E+05   4.77205503775593534E+05   4.77244674319840153E+05   4.77283769438531541E+05
             4.77322784012556076E+05   4.77361715746129630E+05   4.77400563049299992E+05   4.77439323886484490E+05   4.77477994439577684E+05
             4.77516570444843906E+05   4.77555047262051434E+05   4.77593418744985305E+05   4.77631678370934969E+05   4.77669820973564871E+05
             4.77707846812039905E+05   4.77745757501899905E+05   4.77783554172644333E+05   4.77821236009609827E+05   4.77858801712092594E+05
             4.77896250402587932E+05   4.77933582896388602E+05   4.77970800431986514E+05   4.78007904530793428E+05   4.78044897845899395E+05
             4.78081783313313965E+05   4.78118564056407136E+05   4.78155243947988958E+05   4.78191827048229752E+05   4.78228318187839759E+05
             4.78264725279688835E+05   4.78301057007186930E+05   4.78337320314480457E+05   4.78373515188661870E+05   4.78409639877560083E+05
             4.78445693394210539E+05   4.78481677812475129E+05   4.78517595971421979E+05   4.78553451119610632E+05   4.78589248143566074E+05
             4.78624992339304299E+05   4.78660687113588676E+05   4.78696328316170955E+05   4.78731909907549794E+05   4.78767426674744813E+05
             4.78802876710857905E+05   4.78838258935511520E+05   4.78873571507276851E+05   4.78908809540518443E+05   4.78943967388549179E+05
             4.78979042633447738E+05   4.79014045772354875E+05   4.79048990531176853E+05   4.79083890058234916E+05   4.79118755191509845E+05
             4.79153596191397111E+05   4.79188423509131651E+05   4.79223248359305260E+05   4.79258082147348556E+05   4.79292933966988814E+05
             4.79327803665137151E+05   4.79362688777000934E+05   4.79397586893581261E+05   4.79432495829053980E+05   4.79467413453388435E+05
             4.79502337627179804E+05   4.79537266173525306E+05   4.79572196906147932E+05
 ETA=    8   4.68121451140870224E+05   4.68138082345628063E+05   4.68154691788427241E+05   4.68171257786803239E+05   4.68187759057748481E+05
             4.68204169938194391E+05   4.68220465194364719E+05   4.68236624216200027E+05   4.68252631782911660E+05   4.68268477371913439E+05
             4.68284163403159997E+05   4.68299679285334307E+05   4.68315027422681334E+05   4.68330213264037564E+05   4.68345250077203207E+05
             4.68360154241818062E+05   4.68374940035612788E+05   4.68389625688660890E+05   4.68404227342839935E+05   4.68418766780385398E+05
             4.68433239814246888E+05   4.68447647921730939E+05   4.68461989105402492E+05   4.68476271419034048E+05   4.68490499424611509E+05
             4.68504674844902009E+05   4.68518806082884956E+05   4.68532898692092393E+05   4.68546964573008299E+05   4.68561003541426966E+05
             4.68575021799349983E+05   4.68589024332259200E+05   4.68603019812150626E+05   4.68617015708448715E+05   4.68631019024903886E+05
             4.68645039885225473E+05   4.68659087981252349E+05   4.68673174783910974E+05   4.68687301751451101E+05   4.68701472190644534E+05
             4.68715690009792626E+05   4.68729959641631751E+05   4.68744286199110968E+05   4.68758676172050880E+05   4.68773136525228270E+05
             4.68787675706451118E+05   4.68802303149700863E+05   4.68817022432147234E+05   4.68831838257613359E+05   4.68846757022420701E+05
             4.68861785360031645E+05   4.68876931766231253E+05   4.68892205560289556E+05   4.68907614841810602E+05   4.68923168742254144E+05
             4.68938875687443011E+05   4.68954739885332296E+05   4.68970765085910796E+05   4.68986955645973037E+05   4.69003316687781713E+05
             4.69019854225335701E+05   4.69036573984717659E+05   4.69053480283071287E+05   4.69070577466406743E+05   4.69087870026322082E+05
             4.69105365984429081E+05   4.69123073853724403E+05   4.69141001545971318E+05   4.69159158072666090E+05   4.69177552225091960E+05
             4.69196190890464582E+05   4.69215080293247884E+05   4.69234225158695772E+05   4.69253630031402747E+05   4.69273306825508538E+05
             4.69293267693768546E+05   4.69313522826710599E+05   4.69334083024512220E+05   4.69354957583903451E+05   4.69376153895858908E+05
             4.69397680041793792E+05   4.69419542684610235E+05   4.69441745012737811E+05   4.69464283375572180E+05   4.69487151120738941E+05
             4.69510340337717847E+05   4.69533841878941515E+05   4.69557645751672040E+05   4.69581741981443425E+05   4.69606121851128701E+05
[...]
             0.00000000000000000E+00   0.00000000000000000E+00   0.00000000000000000E+00   0.00000000000000000E+00   0.00000000000000000E+00
             0.00000000000000000E+00   0.00000000000000000E+00   0.00000000000000000E+00   0.00000000000000000E+00   0.00000000000000000E+00
             0.00000000000000000E+00   0.00000000000000000E+00   0.00000000000000000E+00   0.00000000000000000E+00   0.00000000000000000E+00
             0.00000000000000000E+00   0.00000000000000000E+00   0.00000000000000000E+00   0.00000000000000000E+00   0.00000000000000000E+00
             0.00000000000000000E+00   0.00000000000000000E+00   0.00000000000000000E+00   0.00000000000000000E+00   0.00000000000000000E+00
             0.00000000000000000E+00   0.00000000000000000E+00   0.00000000000000000E+00   0.00000000000000000E+00   0.00000000000000000E+00
             0.00000000000000000E+00   0.00000000000000000E+00   0.00000000000000000E+00   0.00000000000000000E+00   0.00000000000000000E+00
             0.00000000000000000E+00   0.00000000000000000E+00   0.00000000000000000E+00   0.00000000000000000E+00   0.00000000000000000E+00
             0.00000000000000000E+00   0.00000000000000000E+00   0.00000000000000000E+00   0.00000000000000000E+00   0.00000000000000000E+00
             0.00000000000000000E+00   0.00000000000000000E+00   0.00000000000000000E+00   0.00000000000000000E+00   0.00000000000000000E+00
             0.00000000000000000E+00   0.00000000000000000E+00   0.00000000000000000E+00   0.00000000000000000E+00   0.00000000000000000E+00
             0.00000000000000000E+00   0.00000000000000000E+00   0.00000000000000000E+00   0.00000000000000000E+00   0.00000000000000000E+00
             0.00000000000000000E+00   0.00000000000000000E+00   0.00000000000000000E+00   0.00000000000000000E+00   0.00000000000000000E+00
             0.00000000000000000E+00   0.00000000000000000E+00   0.00000000000000000E+00   0.00000000000000000E+00   0.00000000000000000E+00
             0.00000000000000000E+00   0.00000000000000000E+00   0.00000000000000000E+00   0.00000000000000000E+00   0.00000000000000000E+00
             0.00000000000000000E+00   0.00000000000000000E+00   0.00000000000000000E+00   0.00000000000000000E+00   0.00000000000000000E+00
             0.00000000000000000E+00   0.00000000000000000E+00   0.00000000000000000E+00   0.00000000000000000E+00   0.00000000000000000E+00
             0.00000000000000000E+00   0.00000000000000000E+00   0.00000000000000000E+00   0.00000000000000000E+00   0.00000000000000000E+00
             0.00000000000000000E+00   0.00000000000000000E+00   0.00000000000000000E+00   0.00000000000000000E+00   0.00000000000000000E+00
             0.00000000000000000E+00   0.00000000000000000E+00   0.00000000000000000E+00   0.00000000000000000E+00   0.00000000000000000E+00
             0.00000000000000000E+00   0.00000000000000000E+00   0.00000000000000000E+00   0.00000000000000000E+00   0.00000000000000000E+00
             0.00000000000000000E+00   0.00000000000000000E+00   0.00000000000000000E+00   0.00000000000000000E+00   0.00000000000000000E+00
             0.00000000000000000E+00   0.00000000000000000E+00   0.00000000000000000E+00   0.00000000000000000E+00   0.00000000000000000E+00
             0.00000000000000000E+00   0.00000000000000000E+00   0.00000000000000000E+00   0.00000000000000000E+00   0.00000000000000000E+00
             0.00000000000000000E+00   0.00000000000000000E+00   0.00000000000000000E+00   0.00000000000000000E+00   0.00000000000000000E+00
             0.00000000000000000E+00   0.00000000000000000E+00   0.00000000000000000E+00   0.00000000000000000E+00   0.00000000000000000E+00
             0.00000000000000000E+00   0.00000000000000000E+00   0.00000000000000000E+00   0.00000000000000000E+00   0.00000000000000000E+00
             0.00000000000000000E+00   0.00000000000000000E+00   0.00000000000000000E+00   0.00000000000000000E+00   0.00000000000000000E+00
             0.00000000000000000E+00   0.00000000000000000E+00   0.00000000000000000E+00   0.00000000000000000E+00   0.00000000000000000E+00
             0.00000000000000000E+00   0.00000000000000000E+00   0.00000000000000000E+00   0.00000000000000000E+00   0.00000000000000000E+00
             0.00000000000000000E+00   0.00000000000000000E+00   0.00000000000000000E+00   0.00000000000000000E+00   0.00000000000000000E+00
             0.00000000000000000E+00   0.00000000000000000E+00   0.00000000000000000E+00   0.00000000000000000E+00   0.00000000000000000E+00
             0.00000000000000000E+00   0.00000000000000000E+00   0.00000000000000000E+00   0.00000000000000000E+00   0.00000000000000000E+00
             0.00000000000000000E+00   0.00000000000000000E+00   0.00000000000000000E+00   0.00000000000000000E+00   0.00000000000000000E+00
             0.00000000000000000E+00   0.00000000000000000E+00   0.00000000000000000E+00   0.00000000000000000E+00   0.00000000000000000E+00
             0.00000000000000000E+00   0.00000000000000000E+00   0.00000000000000000E+00   0.00000000000000000E+00   0.00000000000000000E+00
             0.00000000000000000E+00   0.00000000000000000E+00   0.00000000000000000E+00   0.00000000000000000E+00   0.00000000000000000E+00
             0.00000000000000000E+00   0.00000000000000000E+00   0.00000000000000000E+00   0.00000000000000000E+00   0.00000000000000000E+00
             0.00000000000000000E+00   0.00000000000000000E+00   0.00000000000000000E+00   0.00000000000000000E+00   0.00000000000000000E+00
             0.00000000000000000E+00   0.00000000000000000E+00   0.00000000000000000E+00   0.00000000000000000E+00   0.00000000000000000E+00
             0.00000000000000000E+00   0.00000000000000000E+00   0.00000000000000000E+00   0.00000000000000000E+00   0.00000000000000000E+00
             0.00000000000000000E+00   0.00000000000000000E+00   0.00000000000000000E+00   0.00000000000000000E+00   0.00000000000000000E+00
             0.00000000000000000E+00   0.00000000000000000E+00   0.00000000000000000E+00   0.00000000000000000E+00   0.00000000000000000E+00
             0.00000000000000000E+00   0.00000000000000000E+00   0.00000000000000000E+00   0.00000000000000000E+00   0.00000000000000000E+00
             0.00000000000000000E+00   0.00000000000000000E+00   0.00000000000000000E+00   0.00000000000000000E+00   0.00000000000000000E+00
             0.00000000000000000E+00   0.00000000000000000E+00   0.00000000000000000E+00   0.00000000000000000E+00   0.00000000000000000E+00
             0.00000000000000000E+00   0.00000000000000000E+00   0.00000000000000000E+00   0.00000000000000000E+00   0.00000000000000000E+00
             0.00000000000000000E+00   0.00000000000000000E+00   0.00000000000000000E+00   0.00000000000000000E+00   0.00000000000000000E+00
             0.00000000000000000E+00   0.00000000000000000E+00   0.00000000000000000E+00   0.00000000000000000E+00   0.00000000000000000E+00
             0.00000000000000000E+00   0.00000000000000000E+00   0.00000000000000000E+00   0.00000000000000000E+00   0.00000000000000000E+00
             0.00000000000000000E+00   0.00000000000000000E+00   0.00000000000000000E+00   0.00000000000000000E+00   0.00000000000000000E+00
             0.00000000000000000E+00   0.00000000000000000E+00   0.00000000000000000E+00   0.00000000000000000E+00   0.00000000000000000E+00
             0.00000000000000000E+00   0.00000000000000000E+00   0.00000000000000000E+00   0.00000000000000000E+00   0.00000000000000000E+00
             0.00000000000000000E+00   0.00000000000000000E+00   0.00000000000000000E+00   0.00000000000000000E+00   0.00000000000000000E+00
             0.00000000000000000E+00   0.00000000000000000E+00   0.00000000000000000E+00   0.00000000000000000E+00   0.00000000000000000E+00
             0.00000000000000000E+00   0.00000000000000000E+00   0.00000000000000000E+00   0.00000000000000000E+00   0.00000000000000000E+00
             0.00000000000000000E+00   0.00000000000000000E+00   0.00000000000000000E+00   0.00000000000000000E+00   0.00000000000000000E+00
             3.59928707267216593E+06   3.59915771659771353E+06   3.59902872836431907E+06   3.59889997455461696E+06   3.59877157299805852E+06
             3.59864364165363740E+06   3.59851628545034351E+06   3.59838961679311050E+06   3.59826376050299359E+06   3.59813879673070461E+06
             3.59801480693963775E+06   3.59789171405439219E+06   3.59776936332225986E+06   3.59764763667740626E+06   3.59752638580408320E+06
             3.59740545271860715E+06   3.59728468892248254E+06   3.59716395038619032E+06   3.59704309423204372E+06   3.59692200610965397E+06
             3.59680068733381061E+06   3.59667916493851785E+06   3.59655746923960466E+06   3.59643562875441834E+06   3.59631367159514828E+06
             3.59619162696209596E+06   3.59606952396347420E+06   3.59594739173338236E+06
 ETA=  100   3.63198993515514396E+06   3.63193367787513277E+06   3.63187735176124657E+06   3.63182088797961129E+06   3.63176421769635193E+06
             3.63170727207759349E+06   3.63164998228946188E+06   3.63159227949808165E+06   3.63153409486957872E+06   3.63147535957007809E+06
             3.63141602532397164E+06   3.63135612608871562E+06   3.63129571638003318E+06   3.63123485071364651E+06   3.63117358360527968E+06
             3.63111196957065398E+06   3.63105006312549347E+06   3.63098791878552036E+06   3.63092559106645780E+06   3.63086316239631129E+06
             3.63080082685221452E+06   3.63073880642358586E+06   3.63067732309984230E+06   3.63061659887040174E+06   3.63055685572468070E+06
             3.63049831565209618E+06   3.63044120064206515E+06   3.63038573268400691E+06   3.63033203956898116E+06   3.63027987229462713E+06
             3.63022888766022911E+06   3.63017874246506905E+06   3.63012909350843122E+06   3.63007959758959804E+06   3.63002991150785331E+06
             3.62997969206248131E+06   3.62992859605276352E+06   3.62987633535606414E+06   3.62982284216206102E+06   3.62976810373851378E+06
             3.62971210735318065E+06   3.62965484027382126E+06   3.62959628976819338E+06   0.00000000000000000E+00   0.00000000000000000E+00
             0.00000000000000000E+00   0.00000000000000000E+00   0.00000000000000000E+00   0.00000000000000000E+00   0.00000000000000000E+00
             0.00000000000000000E+00   0.00000000000000000E+00   0.00000000000000000E+00   0.00000000000000000E+00   0.00000000000000000E+00
             0.00000000000000000E+00   0.00000000000000000E+00   0.00000000000000000E+00   0.00000000000000000E+00   0.00000000000000000E+00
             0.00000000000000000E+00   0.00000000000000000E+00   0.00000000000000000E+00   0.00000000000000000E+00   0.00000000000000000E+00
             0.00000000000000000E+00   0.00000000000000000E+00   0.00000000000000000E+00   0.00000000000000000E+00   0.00000000000000000E+00
             0.00000000000000000E+00   0.00000000000000000E+00   0.00000000000000000E+00   0.00000000000000000E+00   0.00000000000000000E+00
             0.00000000000000000E+00   0.00000000000000000E+00   0.00000000000000000E+00   0.00000000000000000E+00   0.00000000000000000E+00
             0.00000000000000000E+00   0.00000000000000000E+00   0.00000000000000000E+00   0.00000000000000000E+00   0.00000000000000000E+00
             0.00000000000000000E+00   0.00000000000000000E+00   0.00000000000000000E+00   0.00000000000000000E+00   0.00000000000000000E+00
             0.00000000000000000E+00   0.00000000000000000E+00   0.00000000000000000E+00   0.00000000000000000E+00   0.00000000000000000E+00
             0.00000000000000000E+00   0.00000000000000000E+00   0.00000000000000000E+00   0.00000000000000000E+00   0.00000000000000000E+00
             0.00000000000000000E+00   0.00000000000000000E+00   0.00000000000000000E+00   0.00000000000000000E+00   0.00000000000000000E+00
             0.00000000000000000E+00   0.00000000000000000E+00   0.00000000000000000E+00   0.00000000000000000E+00   0.00000000000000000E+00
             0.00000000000000000E+00   0.00000000000000000E+00   0.00000000000000000E+00   0.00000000000000000E+00   0.00000000000000000E+00
             0.00000000000000000E+00   0.00000000000000000E+00   0.00000000000000000E+00   0.00000000000000000E+00   0.00000000000000000E+00
             0.00000000000000000E+00   0.00000000000000000E+00   0.00000000000000000E+00   0.00000000000000000E+00   0.00000000000000000E+00
             0.00000000000000000E+00   0.00000000000000000E+00   0.00000000000000000E+00   0.00000000000000000E+00   0.00000000000000000E+00
             0.00000000000000000E+00   0.00000000000000000E+00   0.00000000000000000E+00   0.00000000000000000E+00   0.00000000000000000E+00
             0.00000000000000000E+00   0.00000000000000000E+00   0.00000000000000000E+00   0.00000000000000000E+00   0.00000000000000000E+00
             0.00000000000000000E+00   0.00000000000000000E+00   0.00000000000000000E+00   0.00000000000000000E+00   0.00000000000000000E+00
             0.00000000000000000E+00   0.00000000000000000E+00   0.00000000000000000E+00   0.00000000000000000E+00   0.00000000000000000E+00
             0.00000000000000000E+00   0.00000000000000000E+00   0.00000000000000000E+00   0.00000000000000000E+00   0.00000000000000000E+00
             0.00000000000000000E+00   0.00000000000000000E+00   0.00000000000000000E+00   0.00000000000000000E+00   0.00000000000000000E+00
             0.00000000000000000E+00   0.00000000000000000E+00   0.00000000000000000E+00   0.00000000000000000E+00   0.00000000000000000E+00
             0.00000000000000000E+00   0.00000000000000000E+00   0.00000000000000000E+00   0.00000000000000000E+00   0.00000000000000000E+00
             0.00000000000000000E+00   0.00000000000000000E+00   0.00000000000000000E+00   0.00000000000000000E+00   0.00000000000000000E+00
             0.00000000000000000E+00   0.00000000000000000E+00   0.00000000000000000E+00   0.00000000000000000E+00   0.00000000000000000E+00
             0.00000000000000000E+00   0.00000000000000000E+00   0.00000000000000000E+00   0.00000000000000000E+00   0.00000000000000000E+00
             0.00000000000000000E+00   0.00000000000000000E+00   0.00000000000000000E+00   0.00000000000000000E+00   0.00000000000000000E+00
             0.00000000000000000E+00   0.00000000000000000E+00   0.00000000000000000E+00   0.00000000000000000E+00   0.00000000000000000E+00
             0.00000000000000000E+00   0.00000000000000000E+00   0.00000000000000000E+00   0.00000000000000000E+00   0.00000000000000000E+00
             0.00000000000000000E+00   0.00000000000000000E+00   0.00000000000000000E+00   0.00000000000000000E+00   0.00000000000000000E+00
             0.00000000000000000E+00   0.00000000000000000E+00   0.00000000000000000E+00   0.00000000000000000E+00   0.00000000000000000E+00
             0.00000000000000000E+00   0.00000000000000000E+00   0.00000000000000000E+00   0.00000000000000000E+00   0.00000000000000000E+00
             0.00000000000000000E+00   0.00000000000000000E+00   0.00000000000000000E+00   0.00000000000000000E+00   0.00000000000000000E+00
             0.00000000000000000E+00   0.00000000000000000E+00   0.00000000000000000E+00   0.00000000000000000E+00   0.00000000000000000E+00
             0.00000000000000000E+00   0.00000000000000000E+00   0.00000000000000000E+00   0.00000000000000000E+00   0.00000000000000000E+00
             0.00000000000000000E+00   0.00000000000000000E+00   0.00000000000000000E+00   0.00000000000000000E+00   0.00000000000000000E+00
             0.00000000000000000E+00   0.00000000000000000E+00   0.00000000000000000E+00   0.00000000000000000E+00   0.00000000000000000E+00
             0.00000000000000000E+00   0.00000000000000000E+00   0.00000000000000000E+00   0.00000000000000000E+00   0.00000000000000000E+00
             0.00000000000000000E+00   0.00000000000000000E+00   0.00000000000000000E+00   0.00000000000000000E+00   0.00000000000000000E+00
             0.00000000000000000E+00   0.00000000000000000E+00   0.00000000000000000E+00   0.00000000000000000E+00   0.00000000000000000E+00
             0.00000000000000000E+00   0.00000000000000000E+00   0.00000000000000000E+00   0.00000000000000000E+00   0.00000000000000000E+00
             0.00000000000000000E+00   0.00000000000000000E+00   0.00000000000000000E+00   0.00000000000000000E+00   0.00000000000000000E+00
             0.00000000000000000E+00   0.00000000000000000E+00   0.00000000000000000E+00   0.00000000000000000E+00   0.00000000000000000E+00
             0.00000000000000000E+00   0.00000000000000000E+00   0.00000000000000000E+00   0.00000000000000000E+00   0.00000000000000000E+00
             0.00000000000000000E+00   0.00000000000000000E+00   0.00000000000000000E+00   0.00000000000000000E+00   0.00000000000000000E+00
             0.00000000000000000E+00   0.00000000000000000E+00   0.00000000000000000E+00   0.00000000000000000E+00   0.00000000000000000E+00
             0.00000000000000000E+00   0.00000000000000000E+00   0.00000000000000000E+00   0.00000000000000000E+00   0.00000000000000000E+00
             0.00000000000000000E+00   0.00000000000000000E+00   0.00000000000000000E+00   0.00000000000000000E+00   0.00000000000000000E+00
             0.00000000000000000E+00   0.00000000000000000E+00   0.00000000000000000E+00   0.00000000000000000E+00   0.00000000000000000E+00
             0.00000000000000000E+00   0.00000000000000000E+00   0.00000000000000000E+00   0.00000000000000000E+00   0.00000000000000000E+00
             0.00000000000000000E+00   0.00000000000000000E+00   0.00000000000000000E+00   0.00000000000000000E+00   0.00000000000000000E+00
             0.00000000000000000E+00   0.00000000000000000E+00   0.00000000000000000E+00   0.00000000000000000E+00   0.00000000000000000E+00
             0.00000000000000000E+00   0.00000000000000000E+00   0.00000000000000000E+00   0.00000000000000000E+00   0.00000000000000000E+00
             0.00000000000000000E+00   0.00000000000000000E+00   0.00000000000000000E+00   0.00000000000000000E+00   0.00000000000000000E+00
             0.00000000000000000E+00   0.00000000000000000E+00   0.00000000000000000E+00   0.00000000000000000E+00   0.00000000000000000E+00
             0.00000000000000000E+00   0.00000000000000000E+00   0.00000000000000000E+00   0.00000000000000000E+00   0.00000000000000000E+00
             0.00000000000000000E+00   0.00000000000000000E+00   0.00000000000000000E+00   0.00000000000000000E+00   0.00000000000000000E+00
             0.00000000000000000E+00   0.00000000000000000E+00   0.00000000000000000E+00   0.00000000000000000E+00   0.00000000000000000E+00
             0.00000000000000000E+00   0.00000000000000000E+00   0.00000000000000000E+00   0.00000000000000000E+00   0.00000000000000000E+00
             0.00000000000000000E+00   0.00000000000000000E+00   0.00000000000000000E+00   0.00000000000000000E+00   0.00000000000000000E+00
             0.00000000000000000E+00   0.00000000000000000E+00   0.00000000000000000E+00   0.00000000000000000E+00   0.00000000000000000E+00
             3.59929883668117551E+06   3.59916856703020399E+06   3.59903842451694515E+06   3.59890853627910977E+06   3.59877902945441101E+06
             3.59865003118056059E+06   3.59852166859527072E+06   3.59839406883625314E+06   3.59826735904122097E+06   3.59814166634788457E+06
             3.59801707021731511E+06   3.59789345940401498E+06   3.59777067498584324E+06   3.59764855804065941E+06   3.59752694964632438E+06
             3.59740569088069722E+06   3.59728462282163836E+06   3.59716358654700778E+06   3.59704242313466454E+06   3.59692100544689782E+06
             3.59679933348370623E+06   3.59667743902951898E+06   3.59655535386876343E+06   3.59643310978586832E+06   3.59631073856526054E+06
             3.59618827199136838E+06   3.59606574184862059E+06   3.59594317992144451E+06
