*
* Deltares, Delft3D-RGFGRID Version 4.18.00.16842, May 25 2011, 10:45:12
* File creation date: 2015-05-13, 13:09:07
*
Coordinate System = Cartesian
     163     421
 0 0 0
 ETA=    1   4.75785276137009088E+05   4.75797852713199623E+05   4.75810426690255874E+05   4.75822995469043555E+05   4.75835556556946191E+05
             4.75848107887418300E+05   4.75860647500432329E+05   4.75873173407419235E+05   4.75885683505644614E+05   4.75898175663832808E+05
             4.75910647528728878E+05   4.75923095859161462E+05   4.75935517191979976E+05   4.75947908061984810E+05   4.75960264995779376E+05
             4.75972584517918294E+05   4.75984863153504906E+05   4.75997097429839196E+05   4.76009283874769753E+05   4.76021419251936954E+05
             4.76033501268145919E+05   4.76045527865993441E+05   4.76057496988115425E+05   4.76069406577305694E+05   4.76081254576397245E+05
             4.76093038928212714E+05   4.76104757575532421E+05   4.76116408461126150E+05   4.76127991010268510E+05   4.76139510578253365E+05
             4.76150974002879637E+05   4.76162388121945260E+05   4.76173759773245314E+05   4.76185095794574008E+05   4.76196403023725899E+05
             4.76207688298496010E+05   4.76218958456679888E+05   4.76230220635505277E+05   4.76241483169930405E+05   4.76252754694345931E+05
             4.76264043843142164E+05   4.76275359250708076E+05   4.76286709551432345E+05   4.76298103379704873E+05   4.76309549369920976E+05
             4.76321056156477309E+05   4.76332632140316535E+05   4.76344284788566118E+05   4.76356021334899415E+05   4.76367849013008527E+05
             4.76379775056660001E+05   4.76391806699638604E+05   4.76403951175660011E+05   4.76416215718162537E+05   4.76428607560515055E+05
             4.76441132094006811E+05   4.76453787341607676E+05   4.76466569484208128E+05   4.76479474701732513E+05   4.76492499170242401E+05
             4.76505639064833464E+05   4.76518890564205765E+05   4.76532249861476186E+05   4.76545713153365825E+05   4.76559276582203049E+05
             4.76572936072745360E+05   4.76586687495357357E+05   4.76600526770604192E+05   4.76614450019852782E+05   4.76628453414671007E+05
             4.76642532939275494E+05   4.76656683828480018E+05   4.76670901129747275E+05   4.76685180313483987E+05   4.76699518541871803E+05
             4.76713913400036166E+05   4.76728359863642720E+05   4.76742842470517207E+05   4.76757343149025750E+05   0.00000000000000000E+00
             0.00000000000000000E+00   0.00000000000000000E+00   0.00000000000000000E+00   0.00000000000000000E+00   0.00000000000000000E+00
             0.00000000000000000E+00   0.00000000000000000E+00   0.00000000000000000E+00   0.00000000000000000E+00   0.00000000000000000E+00
             0.00000000000000000E+00   0.00000000000000000E+00   0.00000000000000000E+00   0.00000000000000000E+00   0.00000000000000000E+00
             0.00000000000000000E+00   0.00000000000000000E+00   0.00000000000000000E+00   0.00000000000000000E+00   0.00000000000000000E+00
             0.00000000000000000E+00   0.00000000000000000E+00   0.00000000000000000E+00   0.00000000000000000E+00   0.00000000000000000E+00
             0.00000000000000000E+00   0.00000000000000000E+00   0.00000000000000000E+00   0.00000000000000000E+00   0.00000000000000000E+00
             0.00000000000000000E+00   0.00000000000000000E+00   0.00000000000000000E+00   0.00000000000000000E+00   0.00000000000000000E+00
             0.00000000000000000E+00   0.00000000000000000E+00   0.00000000000000000E+00   0.00000000000000000E+00   0.00000000000000000E+00
             0.00000000000000000E+00   0.00000000000000000E+00   0.00000000000000000E+00   0.00000000000000000E+00   0.00000000000000000E+00
             0.00000000000000000E+00   0.00000000000000000E+00   0.00000000000000000E+00   0.00000000000000000E+00   0.00000000000000000E+00
             0.00000000000000000E+00   0.00000000000000000E+00   0.00000000000000000E+00   0.00000000000000000E+00   0.00000000000000000E+00
             0.00000000000000000E+00   0.00000000000000000E+00   0.00000000000000000E+00   0.00000000000000000E+00   0.00000000000000000E+00
             0.00000000000000000E+00   0.00000000000000000E+00   0.00000000000000000E+00   0.00000000000000000E+00   0.00000000000000000E+00
             0.00000000000000000E+00   0.00000000000000000E+00   0.00000000000000000E+00   0.00000000000000000E+00   0.00000000000000000E+00
             0.00000000000000000E+00   0.00000000000000000E+00   0.00000000000000000E+00   0.00000000000000000E+00   0.00000000000000000E+00
             0.00000000000000000E+00   0.00000000000000000E+00   0.00000000000000000E+00   0.00000000000000000E+00   0.00000000000000000E+00
             0.00000000000000000E+00   0.00000000000000000E+00   0.00000000000000000E+00
 ETA=    2   4.75822304461314518E+05   4.75834944044864504E+05   4.75847581225194386E+05   4.75860213605632714E+05   4.75872838741484913E+05
             4.75885454372540873E+05   4.75898058197497274E+05   4.75910647823884967E+05   4.75923221031389025E+05   4.75935775521727570E+05
             4.75948309022163099E+05   4.75960817932340782E+05   4.75973298696436104E+05   4.75985747656749736E+05   4.75998161315944220E+05
             4.76010536098896060E+05   4.76022868381919281E+05   4.76035154824707308E+05   4.76047392067931942E+05   4.76059577187476505E+05
             4.76071707237273746E+05   4.76083779746368644E+05   4.76095792196849186E+05   4.76107742401107913E+05   4.76119628177560400E+05
             4.76131447207977297E+05   4.76143197191711399E+05   4.76154875765873294E+05   4.76166482304535341E+05   4.76178022237870609E+05
             4.76189502832647646E+05   4.76200931203324406E+05   4.76212314487654192E+05   4.76223659784083196E+05   4.76234974191681889E+05
             4.76246265146095073E+05   4.76257540206362377E+05   4.76268807259267487E+05   4.76280074254106847E+05   4.76291349602517497E+05
             4.76302641695805709E+05   4.76313959296660032E+05   4.76325311294002575E+05   4.76336706485250208E+05   4.76348153759728302E+05
             4.76359662074648775E+05   4.76371240233381919E+05   4.76382895565869811E+05   4.76394635415534722E+05   4.76406467018984549E+05
             4.76418398034653859E+05   4.76430436181738041E+05   4.76442588953282451E+05   4.76454863675525703E+05   4.76467267609509756E+05
             4.76479805954448646E+05   4.76492476955306949E+05   4.76505276941808406E+05   4.76518202042086865E+05   4.76531248383867729E+05
             4.76544412012152956E+05   4.76557688861404080E+05   4.76571074996238458E+05   4.76584566461414041E+05   4.76598159406738705E+05
             4.76611849468072760E+05   4.76625632452309888E+05   4.76639504102497187E+05   4.76653460578558501E+05   4.76667498026857560E+05
             4.76681612225206045E+05   4.76695798197300057E+05   4.76710050634471932E+05   4.76724364929117844E+05   4.76738738339031755E+05
             4.76753168845112901E+05   4.76767651613705792E+05   4.76782171092245902E+05   4.76796708924619656E+05   0.00000000000000000E+00
             0.00000000000000000E+00   0.00000000000000000E+00   0.00000000000000000E+00   0.00000000000000000E+00   0.00000000000000000E+00
             0.00000000000000000E+00   0.00000000000000000E+00   0.00000000000000000E+00   0.00000000000000000E+00   0.00000000000000000E+00
             0.00000000000000000E+00   0.00000000000000000E+00   0.00000000000000000E+00   0.00000000000000000E+00   0.00000000000000000E+00
             0.00000000000000000E+00   0.00000000000000000E+00   0.00000000000000000E+00   0.00000000000000000E+00   0.00000000000000000E+00
             0.00000000000000000E+00   0.00000000000000000E+00   0.00000000000000000E+00   0.00000000000000000E+00   0.00000000000000000E+00
             0.00000000000000000E+00   0.00000000000000000E+00   0.00000000000000000E+00   0.00000000000000000E+00   0.00000000000000000E+00
             0.00000000000000000E+00   0.00000000000000000E+00   0.00000000000000000E+00   0.00000000000000000E+00   0.00000000000000000E+00
             0.00000000000000000E+00   0.00000000000000000E+00   0.00000000000000000E+00   0.00000000000000000E+00   0.00000000000000000E+00
             0.00000000000000000E+00   0.00000000000000000E+00   0.00000000000000000E+00   0.00000000000000000E+00   0.00000000000000000E+00
             0.00000000000000000E+00   0.00000000000000000E+00   0.00000000000000000E+00   0.00000000000000000E+00   0.00000000000000000E+00
             0.00000000000000000E+00   0.00000000000000000E+00   0.00000000000000000E+00   0.00000000000000000E+00   0.00000000000000000E+00
             0.00000000000000000E+00   0.00000000000000000E+00   0.00000000000000000E+00   0.00000000000000000E+00   0.00000000000000000E+00
             0.00000000000000000E+00   0.00000000000000000E+00   0.00000000000000000E+00   0.00000000000000000E+00   0.00000000000000000E+00
             0.00000000000000000E+00   0.00000000000000000E+00   0.00000000000000000E+00   0.00000000000000000E+00   0.00000000000000000E+00
             0.00000000000000000E+00   0.00000000000000000E+00   0.00000000000000000E+00   0.00000000000000000E+00   0.00000000000000000E+00
             0.00000000000000000E+00   0.00000000000000000E+00   0.00000000000000000E+00   0.00000000000000000E+00   0.00000000000000000E+00
             0.00000000000000000E+00   0.00000000000000000E+00   0.00000000000000000E+00
 ETA=    3   4.75859377409730398E+05   4.75872080446315464E+05   4.75884781302591669E+05   4.75897477783949987E+05   4.75910167472920788E+05
             4.75922847938165592E+05   4.75935516533037473E+05   4.75948170457714878E+05   4.75960807380578713E+05   4.75973424830523611E+05
             4.75986020364792086E+05   4.75998590279840573E+05   4.76011130919722083E+05   4.76023638432297274E+05   4.76036109305748483E+05
             4.76048539856047544E+05   4.76060926296493446E+05   4.76073265442542965E+05   4.76085554036409827E+05   4.76097789170978416E+05
             4.76109967555924319E+05   4.76122086292175867E+05   4.76134142388036591E+05   4.76146133556735178E+05   4.76158057471354958E+05
             4.76169911541581969E+05   4.76181693260684726E+05   4.76193399930882733E+05   4.76205030677916482E+05   4.76216591240879556E+05
             4.76228089279471082E+05   4.76239532176272944E+05   4.76250927417133469E+05   4.76262282321085571E+05   4.76273604204107367E+05
             4.76284901184879243E+05   4.76296181500754261E+05   4.76307453549338796E+05   4.76318725176969601E+05   4.76330004525919445E+05
             4.76341299719962582E+05   4.76352619722337287E+05   4.76363973624048231E+05   4.76375370365144976E+05   4.76386819162208703E+05
             4.76398329239346844E+05   4.76409909620684572E+05   4.76421567734559940E+05   4.76433310976216744E+05   4.76445146621385880E+05
             4.76457082771130663E+05   4.76469127573581296E+05   4.76481288809503487E+05   4.76493573923285585E+05   4.76505990151134436E+05
             4.76518542601223453E+05   4.76531229691399669E+05   4.76544047855819867E+05   4.76556993212095345E+05   4.76570061840530194E+05
             4.76583249621524999E+05   4.76596552257621137E+05   4.76609965704557719E+05   4.76623485828973644E+05   4.76637108612510143E+05
             4.76650829600315366E+05   4.76664644515984051E+05   4.76678548951816920E+05   4.76692539097322733E+05   4.76706611058773007E+05
             4.76720760441624501E+05   4.76734982036954665E+05   4.76749270168829942E+05   4.76763619979314099E+05   4.76778029001709365E+05
             4.76792495606586977E+05   4.76807015166932193E+05   4.76821572027273127E+05   4.76836147543898958E+05   0.00000000000000000E+00
             0.00000000000000000E+00   0.00000000000000000E+00   0.00000000000000000E+00   0.00000000000000000E+00   0.00000000000000000E+00
             0.00000000000000000E+00   0.00000000000000000E+00   0.00000000000000000E+00   0.00000000000000000E+00   0.00000000000000000E+00
             0.00000000000000000E+00   0.00000000000000000E+00   0.00000000000000000E+00   0.00000000000000000E+00   0.00000000000000000E+00
             0.00000000000000000E+00   0.00000000000000000E+00   0.00000000000000000E+00   0.00000000000000000E+00   0.00000000000000000E+00
             0.00000000000000000E+00   0.00000000000000000E+00   0.00000000000000000E+00   0.00000000000000000E+00   0.00000000000000000E+00
             0.00000000000000000E+00   0.00000000000000000E+00   0.00000000000000000E+00   0.00000000000000000E+00   0.00000000000000000E+00
             0.00000000000000000E+00   0.00000000000000000E+00   0.00000000000000000E+00   0.00000000000000000E+00   0.00000000000000000E+00
             0.00000000000000000E+00   0.00000000000000000E+00   0.00000000000000000E+00   0.00000000000000000E+00   0.00000000000000000E+00
             0.00000000000000000E+00   0.00000000000000000E+00   0.00000000000000000E+00   0.00000000000000000E+00   0.00000000000000000E+00
             0.00000000000000000E+00   0.00000000000000000E+00   0.00000000000000000E+00   0.00000000000000000E+00   0.00000000000000000E+00
             0.00000000000000000E+00   0.00000000000000000E+00   0.00000000000000000E+00   0.00000000000000000E+00   0.00000000000000000E+00
             0.00000000000000000E+00   0.00000000000000000E+00   0.00000000000000000E+00   0.00000000000000000E+00   0.00000000000000000E+00
             0.00000000000000000E+00   0.00000000000000000E+00   0.00000000000000000E+00   0.00000000000000000E+00   0.00000000000000000E+00
             0.00000000000000000E+00   0.00000000000000000E+00   0.00000000000000000E+00   0.00000000000000000E+00   0.00000000000000000E+00
             0.00000000000000000E+00   0.00000000000000000E+00   0.00000000000000000E+00   0.00000000000000000E+00   0.00000000000000000E+00
             0.00000000000000000E+00   0.00000000000000000E+00   0.00000000000000000E+00   0.00000000000000000E+00   0.00000000000000000E+00
             0.00000000000000000E+00   0.00000000000000000E+00   0.00000000000000000E+00
 ETA=    4   4.75896539606367238E+05   4.75909307077168720E+05   4.75922072554708109E+05   4.75934834045723605E+05   4.75947589389490953E+05
             4.75960335755437554E+05   4.75973070145528414E+05   4.75985789619536197E+05   4.75998491468464083E+05   4.76011173041122500E+05
             4.76023831500806671E+05   4.76036463268749416E+05   4.76049064580667880E+05   4.76061631665912515E+05   4.76074160728366754E+05
             4.76086647965546814E+05   4.76099089680706849E+05   4.76111482600050513E+05   4.76123823555519222E+05   4.76136109349822975E+05
             4.76148336668747594E+05   4.76160502168847306E+05   4.76172602648479398E+05   4.76184635473211063E+05   4.76196598150412436E+05
             4.76208488092856482E+05   4.76220302334928361E+05   4.76232037816416647E+05   4.76243693323966640E+05   4.76255275031652593E+05
             4.76266790960405779E+05   4.76278249044886790E+05   4.76289656874673790E+05   4.76301021953074494E+05   4.76312352011971525E+05
             4.76323655697548820E+05   4.76334941884565051E+05   4.76346219272888382E+05   4.76357495862822980E+05   4.76368779479782272E+05
             4.76380078185553779E+05   4.76391400987421803E+05   4.76402757129044854E+05   4.76414155886232154E+05   4.76425606663395651E+05
             4.76437118897098117E+05   4.76448701682936458E+05   4.76460362752644927E+05   4.76472109496992023E+05   4.76483949495611421E+05
             4.76495891083598137E+05   4.76507942784912302E+05   4.76520112896462146E+05   4.76532408806948340E+05   4.76544837678019423E+05
             4.76557404893969477E+05   4.76570108729673957E+05   4.76582945682653750E+05   4.76595912114672188E+05   4.76609003844462975E+05
             4.76622216555002204E+05   4.76635545926106221E+05   4.76648987624951813E+05   4.76662537315556081E+05   4.76676190655084560E+05
             4.76689943273297045E+05   4.76703790793101653E+05   4.76717728909221420E+05   4.76731753603637626E+05   4.76745860930146242E+05
             4.76760046591516118E+05   4.76774304886407859E+05   4.76788629762454890E+05   4.76803015969031199E+05   4.76817461462472857E+05
             4.76831965000856086E+05   4.76846522393521387E+05   4.76861117654865433E+05   4.76875731850548822E+05   0.00000000000000000E+00
             0.00000000000000000E+00   0.00000000000000000E+00   0.00000000000000000E+00   0.00000000000000000E+00   0.00000000000000000E+00
             0.00000000000000000E+00   0.00000000000000000E+00   0.00000000000000000E+00   0.00000000000000000E+00   0.00000000000000000E+00
             0.00000000000000000E+00   0.00000000000000000E+00   0.00000000000000000E+00   0.00000000000000000E+00   0.00000000000000000E+00
             0.00000000000000000E+00   0.00000000000000000E+00   0.00000000000000000E+00   0.00000000000000000E+00   0.00000000000000000E+00
             0.00000000000000000E+00   0.00000000000000000E+00   0.00000000000000000E+00   0.00000000000000000E+00   0.00000000000000000E+00
             0.00000000000000000E+00   0.00000000000000000E+00   0.00000000000000000E+00   0.00000000000000000E+00   0.00000000000000000E+00
             0.00000000000000000E+00   0.00000000000000000E+00   0.00000000000000000E+00   0.00000000000000000E+00   0.00000000000000000E+00
             0.00000000000000000E+00   0.00000000000000000E+00   0.00000000000000000E+00   0.00000000000000000E+00   0.00000000000000000E+00
             0.00000000000000000E+00   0.00000000000000000E+00   0.00000000000000000E+00   0.00000000000000000E+00   0.00000000000000000E+00
             0.00000000000000000E+00   0.00000000000000000E+00   0.00000000000000000E+00   0.00000000000000000E+00   0.00000000000000000E+00
             0.00000000000000000E+00   0.00000000000000000E+00   0.00000000000000000E+00   0.00000000000000000E+00   0.00000000000000000E+00
             0.00000000000000000E+00   0.00000000000000000E+00   0.00000000000000000E+00   0.00000000000000000E+00   0.00000000000000000E+00
             0.00000000000000000E+00   0.00000000000000000E+00   0.00000000000000000E+00   0.00000000000000000E+00   0.00000000000000000E+00
             0.00000000000000000E+00   0.00000000000000000E+00   0.00000000000000000E+00   0.00000000000000000E+00   0.00000000000000000E+00
             0.00000000000000000E+00   0.00000000000000000E+00   0.00000000000000000E+00   0.00000000000000000E+00   0.00000000000000000E+00
             0.00000000000000000E+00   0.00000000000000000E+00   0.00000000000000000E+00   0.00000000000000000E+00   0.00000000000000000E+00
             0.00000000000000000E+00   0.00000000000000000E+00   0.00000000000000000E+00
 ETA=    5   4.75933827249093971E+05   4.75946660472593212E+05   4.75959491893580707E+05   4.75972319752359705E+05   4.75985142112081929E+05
             4.75997955847517413E+05   4.76010757662016666E+05   4.76023544437186909E+05   4.76036312942253891E+05   4.76049060136347660E+05
             4.76061782927890366E+05   4.76074477695282199E+05   4.76087140783086244E+05   4.76099768624566495E+05   4.76112357229854504E+05
             4.76124902721036517E+05   4.76137401394609537E+05   4.76149849668419862E+05   4.76162244163959695E+05   4.76174581782320049E+05
             4.76186858783099684E+05   4.76199071745691588E+05   4.76211217427484109E+05   4.76223292900691973E+05   4.76235295468449825E+05
             4.76247222453108057E+05   4.76259070307439251E+05   4.76270835575508536E+05   4.76282516689816955E+05   4.76294120236724615E+05
             4.76305654782124446E+05   4.76317128793329990E+05   4.76328550067323085E+05   4.76339926413362962E+05   4.76351265876753780E+05
             4.76362577317480289E+05   4.76373869957230403E+05   4.76385153492621845E+05   4.76396435318397416E+05   4.76407723446126562E+05
             4.76419025990109367E+05   4.76430352125716221E+05   4.76441711283008393E+05   4.76453112896916806E+05   4.76464566319348873E+05
             4.76476081069829757E+05   4.76487666701070790E+05   4.76499330821518088E+05   4.76511081243340741E+05   4.76522925910600752E+05
             4.76534873362782702E+05   4.76546932440891105E+05   4.76559111820177583E+05   4.76571418940453441E+05   4.76583861234959564E+05
             4.76596443842611276E+05   4.76609165365613298E+05   4.76622022258963378E+05   4.76635010845910874E+05   4.76648126750573399E+05
             4.76661365581571765E+05   4.76674722988266207E+05   4.76688194236203213E+05   4.76701774718928442E+05   4.76715459691761585E+05
             4.76729244910948037E+05   4.76743126059496892E+05   4.76757098994357802E+05   4.76771159483297262E+05   4.76785303513733728E+05
             4.76799526894124632E+05   4.76813823355455417E+05   4.76828186480268894E+05   4.76842610307538242E+05   4.76857093539429072E+05
             4.76871635356543702E+05   4.76886232009705564E+05   4.76900867157338536E+05   4.76915521538037923E+05   0.00000000000000000E+00
             0.00000000000000000E+00   0.00000000000000000E+00   0.00000000000000000E+00   0.00000000000000000E+00   0.00000000000000000E+00
             0.00000000000000000E+00   0.00000000000000000E+00   0.00000000000000000E+00   0.00000000000000000E+00   0.00000000000000000E+00
             0.00000000000000000E+00   0.00000000000000000E+00   0.00000000000000000E+00   0.00000000000000000E+00   0.00000000000000000E+00
             0.00000000000000000E+00   0.00000000000000000E+00   0.00000000000000000E+00   0.00000000000000000E+00   0.00000000000000000E+00
             0.00000000000000000E+00   0.00000000000000000E+00   0.00000000000000000E+00   0.00000000000000000E+00   0.00000000000000000E+00
             0.00000000000000000E+00   0.00000000000000000E+00   0.00000000000000000E+00   0.00000000000000000E+00   0.00000000000000000E+00
             0.00000000000000000E+00   0.00000000000000000E+00   0.00000000000000000E+00   0.00000000000000000E+00   0.00000000000000000E+00
             0.00000000000000000E+00   0.00000000000000000E+00   0.00000000000000000E+00   0.00000000000000000E+00   0.00000000000000000E+00
             0.00000000000000000E+00   0.00000000000000000E+00   0.00000000000000000E+00   0.00000000000000000E+00   0.00000000000000000E+00
             0.00000000000000000E+00   0.00000000000000000E+00   0.00000000000000000E+00   0.00000000000000000E+00   0.00000000000000000E+00
             0.00000000000000000E+00   0.00000000000000000E+00   0.00000000000000000E+00   0.00000000000000000E+00   0.00000000000000000E+00
             0.00000000000000000E+00   0.00000000000000000E+00   0.00000000000000000E+00   0.00000000000000000E+00   0.00000000000000000E+00
             0.00000000000000000E+00   0.00000000000000000E+00   0.00000000000000000E+00   0.00000000000000000E+00   0.00000000000000000E+00
             0.00000000000000000E+00   0.00000000000000000E+00   0.00000000000000000E+00   0.00000000000000000E+00   0.00000000000000000E+00
             0.00000000000000000E+00   0.00000000000000000E+00   0.00000000000000000E+00   0.00000000000000000E+00   0.00000000000000000E+00
             0.00000000000000000E+00   0.00000000000000000E+00   0.00000000000000000E+00   0.00000000000000000E+00   0.00000000000000000E+00
             0.00000000000000000E+00   0.00000000000000000E+00   0.00000000000000000E+00
 ETA=    6   4.75971242830812524E+05   4.75984143076232111E+05   4.75997041821634979E+05   4.76009937543976062E+05   4.76022828272021841E+05
             4.76035710845034570E+05   4.76048581663834280E+05   4.76061437134494190E+05   4.76074273800717434E+05   4.76087088226710504E+05
             4.76099876641417155E+05   4.76112635807528102E+05   4.76125362170720589E+05   4.76138052073403844E+05   4.76150701632678101E+05
             4.76163306886034086E+05   4.76175863842534716E+05   4.76188368898805114E+05   4.76200818453966640E+05   4.76213208866656409E+05
             4.76225536622796091E+05   4.76237798207523650E+05   4.76249990082041360E+05   4.76262109295395901E+05   4.76274152923525719E+05
             4.76286117881296261E+05   4.76298000378278608E+05   4.76309796532275970E+05   4.76321504164177226E+05   4.76333130563788640E+05
             4.76344684809769038E+05   4.76356175680057320E+05   4.76367611444340786E+05   4.76379000178542221E+05   4.76390350009125192E+05
             4.76401670287509798E+05   4.76412970537090732E+05   4.76424260562513897E+05   4.76435548092033016E+05   4.76446841274134407E+05
             4.76458148149389250E+05   4.76469478238932905E+05   4.76480841106117587E+05   4.76492246124384459E+05   4.76503702867998159E+05
             4.76515220881071407E+05   4.76526809581375623E+05   4.76538477103388926E+05   4.76550231622476771E+05   4.76562081282373634E+05
             4.76574035050346109E+05   4.76586102028343070E+05   4.76598291015918949E+05   4.76610609813478775E+05   4.76623066075409122E+05
             4.76635664899988333E+05   4.76648405066337960E+05   4.76661282942370977E+05   4.76674294631428609E+05   4.76687435783736699E+05
             4.76700701897959923E+05   4.76714088357340253E+05   4.76727590289333020E+05   4.76741202789880626E+05   4.76754920549084083E+05
             4.76768739633761405E+05   4.76782655767453718E+05   4.76796664737679472E+05   4.76810762344643823E+05   4.76824944494402735E+05
             4.76839206809269090E+05   4.76853542751902365E+05   4.76867945528348326E+05   4.76882408551651926E+05   4.76896931193320430E+05
             4.76911513051178365E+05   4.76926150587622775E+05   4.76940827335855982E+05   4.76955523698968464E+05   0.00000000000000000E+00
             0.00000000000000000E+00   0.00000000000000000E+00   0.00000000000000000E+00   0.00000000000000000E+00   0.00000000000000000E+00
             0.00000000000000000E+00   0.00000000000000000E+00   0.00000000000000000E+00   0.00000000000000000E+00   0.00000000000000000E+00
             0.00000000000000000E+00   0.00000000000000000E+00   0.00000000000000000E+00   0.00000000000000000E+00   0.00000000000000000E+00
             0.00000000000000000E+00   0.00000000000000000E+00   0.00000000000000000E+00   0.00000000000000000E+00   0.00000000000000000E+00
             0.00000000000000000E+00   0.00000000000000000E+00   0.00000000000000000E+00   0.00000000000000000E+00   0.00000000000000000E+00
             0.00000000000000000E+00   0.00000000000000000E+00   0.00000000000000000E+00   0.00000000000000000E+00   0.00000000000000000E+00
             0.00000000000000000E+00   0.00000000000000000E+00   0.00000000000000000E+00   0.00000000000000000E+00   0.00000000000000000E+00
             0.00000000000000000E+00   0.00000000000000000E+00   0.00000000000000000E+00   0.00000000000000000E+00   0.00000000000000000E+00
             0.00000000000000000E+00   0.00000000000000000E+00   0.00000000000000000E+00   0.00000000000000000E+00   0.00000000000000000E+00
             0.00000000000000000E+00   0.00000000000000000E+00   0.00000000000000000E+00   0.00000000000000000E+00   0.00000000000000000E+00
             0.00000000000000000E+00   0.00000000000000000E+00   0.00000000000000000E+00   0.00000000000000000E+00   0.00000000000000000E+00
             0.00000000000000000E+00   0.00000000000000000E+00   0.00000000000000000E+00   0.00000000000000000E+00   0.00000000000000000E+00
             0.00000000000000000E+00   0.00000000000000000E+00   0.00000000000000000E+00   0.00000000000000000E+00   0.00000000000000000E+00
             0.00000000000000000E+00   0.00000000000000000E+00   0.00000000000000000E+00   0.00000000000000000E+00   0.00000000000000000E+00
             0.00000000000000000E+00   0.00000000000000000E+00   0.00000000000000000E+00   0.00000000000000000E+00   0.00000000000000000E+00
             0.00000000000000000E+00   0.00000000000000000E+00   0.00000000000000000E+00   0.00000000000000000E+00   0.00000000000000000E+00
             0.00000000000000000E+00   0.00000000000000000E+00   0.00000000000000000E+00
 ETA=    7   4.76008780418183422E+05   4.76021749125440721E+05   4.76034716542801238E+05   4.76047681380368653E+05   4.76060641911414394E+05
             4.76073594661882322E+05   4.76086535720884800E+05   4.76099461189179099E+05   4.76112367214104393E+05   4.76125249954644940E+05
             4.76138105633210798E+05   4.76150930725915299E+05   4.76163721772297460E+05   4.76176475212363934E+05   4.76189187087991741E+05
             4.76201853341525886E+05   4.76214469951908977E+05   4.76227033044475946E+05   4.76239538781159208E+05   4.76251983359736158E+05
             4.76264363121361588E+05   4.76276674443034863E+05   4.76288913777179376E+05   4.76301077877914649E+05   4.76313163574784470E+05
             4.76325167503479344E+05   4.76337085524278402E+05   4.76348913303607726E+05   4.76360648824228963E+05   4.76372299334246316E+05
             4.76383874398099084E+05   4.76395383371114323E+05   4.76406834772167960E+05   4.76418236911023385E+05   4.76429598343561636E+05
             4.76440928610134870E+05   4.76452237497212831E+05   4.76463534533250844E+05   4.76474828214645386E+05   4.76486126779778395E+05
             4.76497438701982202E+05   4.76508773394391465E+05   4.76520140505091345E+05   4.76531549660017597E+05   4.76543010396508442E+05
             4.76554532229752862E+05   4.76566124503278697E+05   4.76577795873969444E+05   4.76589554827047628E+05   4.76601409985390492E+05
             4.76613370522494253E+05   4.76625445749509672E+05   4.76637644730308268E+05   4.76649975539642910E+05   4.76662446004987112E+05
             4.76675062022663595E+05   4.76687821764391847E+05   4.76700721470740682E+05   4.76713757235042984E+05   4.76726924561687629E+05
             4.76740218807827274E+05   4.76753635233678215E+05   4.76767168711710779E+05   4.76780814017458353E+05   4.76794566088752588E+05
             4.76808420512615994E+05   4.76822373038368823E+05   4.76836419426067616E+05   4.76850555478714639E+05   4.76864777010048216E+05
             4.76879079335084942E+05   4.76893455773952883E+05   4.76907899148058321E+05   4.76922403478016669E+05   4.76936967581281264E+05
             4.76951591474514687E+05   4.76966271849011886E+05   4.76980992094596848E+05   4.76995732275725633E+05   0.00000000000000000E+00
             0.00000000000000000E+00   0.00000000000000000E+00   0.00000000000000000E+00   0.00000000000000000E+00   0.00000000000000000E+00
             0.00000000000000000E+00   0.00000000000000000E+00   0.00000000000000000E+00   0.00000000000000000E+00   0.00000000000000000E+00
             0.00000000000000000E+00   0.00000000000000000E+00   0.00000000000000000E+00   0.00000000000000000E+00   0.00000000000000000E+00
             0.00000000000000000E+00   0.00000000000000000E+00   0.00000000000000000E+00   0.00000000000000000E+00   0.00000000000000000E+00
             0.00000000000000000E+00   0.00000000000000000E+00   0.00000000000000000E+00   0.00000000000000000E+00   0.00000000000000000E+00
             0.00000000000000000E+00   0.00000000000000000E+00   0.00000000000000000E+00   0.00000000000000000E+00   0.00000000000000000E+00
             0.00000000000000000E+00   0.00000000000000000E+00   0.00000000000000000E+00   0.00000000000000000E+00   0.00000000000000000E+00
             0.00000000000000000E+00   0.00000000000000000E+00   0.00000000000000000E+00   0.00000000000000000E+00   0.00000000000000000E+00
             0.00000000000000000E+00   0.00000000000000000E+00   0.00000000000000000E+00   0.00000000000000000E+00   0.00000000000000000E+00
             0.00000000000000000E+00   0.00000000000000000E+00   0.00000000000000000E+00   0.00000000000000000E+00   0.00000000000000000E+00
             0.00000000000000000E+00   0.00000000000000000E+00   0.00000000000000000E+00   0.00000000000000000E+00   0.00000000000000000E+00
             0.00000000000000000E+00   0.00000000000000000E+00   0.00000000000000000E+00   0.00000000000000000E+00   0.00000000000000000E+00
             0.00000000000000000E+00   0.00000000000000000E+00   0.00000000000000000E+00   0.00000000000000000E+00   0.00000000000000000E+00
             0.00000000000000000E+00   0.00000000000000000E+00   0.00000000000000000E+00   0.00000000000000000E+00   0.00000000000000000E+00
             0.00000000000000000E+00   0.00000000000000000E+00   0.00000000000000000E+00   0.00000000000000000E+00   0.00000000000000000E+00
             0.00000000000000000E+00   0.00000000000000000E+00   0.00000000000000000E+00   0.00000000000000000E+00   0.00000000000000000E+00
             0.00000000000000000E+00   0.00000000000000000E+00   0.00000000000000000E+00
 ETA=    8   4.76046436335671751E+05   4.76059474829008977E+05   4.76072512228311331E+05   4.76085547471843835E+05   4.76098579187043360E+05
             4.76111603363403759E+05   4.76124615684484015E+05   4.76137611958616937E+05   4.76150588185522822E+05   4.76163540499548195E+05
             4.76176464761785232E+05   4.76189357514912030E+05   4.76202215042899072E+05   4.76215033606578480E+05   4.76227809123602288E+05
             4.76240537510070950E+05   4.76253214922885993E+05   4.76265837148471212E+05   4.76278400244049553E+05   4.76290900323415117E+05
             4.76303333498349937E+05   4.76315695977002033E+05   4.76327984205135959E+05   4.76340194404256414E+05   4.76352323088297620E+05
             4.76364366598055814E+05   4.76376320779421891E+05   4.76388181375385902E+05   4.76399945903869404E+05   4.76411622145515168E+05
             4.76423219741028908E+05   4.76434748266276205E+05   4.76446216486934107E+05   4.76457633212845016E+05   4.76469007766271243E+05
             4.76480349308980571E+05   4.76491667643440655E+05   4.76502972602323338E+05   4.76514272786196205E+05   4.76525576969038288E+05
             4.76536894579115149E+05   4.76548234526056040E+05   4.76559606528499105E+05   4.76571020571511530E+05   4.76582485858199710E+05
             4.76594012022426759E+05   4.76605608406765619E+05   4.76617284077749588E+05   4.76629047981969314E+05   4.76640909221113601E+05
             4.76652876967877324E+05   4.76664960718423303E+05   4.76677169771330431E+05   4.76689512664002948E+05   4.76701997896750865E+05
             4.76714631618644693E+05   4.76727411895714409E+05   4.76740334586853918E+05   4.76753395449902979E+05   4.76766589729698026E+05
             4.76779912683108356E+05   4.76793359509994916E+05   4.76806925051803060E+05   4.76820604176231776E+05   4.76834391729127790E+05
             4.76848283150893170E+05   4.76862273919127532E+05   4.76876359343248943E+05   4.76890535190689552E+05   4.76904797102903656E+05
             4.76919139849001251E+05   4.76933557442633610E+05   4.76948043054647802E+05   4.76962590355410008E+05   4.76977198543761042E+05
             4.76991867337590433E+05   4.77006592967958364E+05   4.77021358799780835E+05   4.77036144721015531E+05   0.00000000000000000E+00
             0.00000000000000000E+00   0.00000000000000000E+00   0.00000000000000000E+00   0.00000000000000000E+00   0.00000000000000000E+00
             0.00000000000000000E+00   0.00000000000000000E+00   0.00000000000000000E+00   0.00000000000000000E+00   0.00000000000000000E+00
             0.00000000000000000E+00   0.00000000000000000E+00   0.00000000000000000E+00   0.00000000000000000E+00   0.00000000000000000E+00
             0.00000000000000000E+00   0.00000000000000000E+00   0.00000000000000000E+00   0.00000000000000000E+00   0.00000000000000000E+00
             0.00000000000000000E+00   0.00000000000000000E+00   0.00000000000000000E+00   0.00000000000000000E+00   0.00000000000000000E+00
             0.00000000000000000E+00   0.00000000000000000E+00   0.00000000000000000E+00   0.00000000000000000E+00   0.00000000000000000E+00
             0.00000000000000000E+00   0.00000000000000000E+00   0.00000000000000000E+00   0.00000000000000000E+00   0.00000000000000000E+00
             0.00000000000000000E+00   0.00000000000000000E+00   0.00000000000000000E+00   0.00000000000000000E+00   0.00000000000000000E+00
             0.00000000000000000E+00   0.00000000000000000E+00   0.00000000000000000E+00   0.00000000000000000E+00   0.00000000000000000E+00
             0.00000000000000000E+00   0.00000000000000000E+00   0.00000000000000000E+00   0.00000000000000000E+00   0.00000000000000000E+00
             0.00000000000000000E+00   0.00000000000000000E+00   0.00000000000000000E+00   0.00000000000000000E+00   0.00000000000000000E+00
             0.00000000000000000E+00   0.00000000000000000E+00   0.00000000000000000E+00   0.00000000000000000E+00   0.00000000000000000E+00
             0.00000000000000000E+00   0.00000000000000000E+00   0.00000000000000000E+00   0.00000000000000000E+00   0.00000000000000000E+00
             0.00000000000000000E+00   0.00000000000000000E+00   0.00000000000000000E+00   0.00000000000000000E+00   0.00000000000000000E+00
             0.00000000000000000E+00   0.00000000000000000E+00   0.00000000000000000E+00   0.00000000000000000E+00   0.00000000000000000E+00
             0.00000000000000000E+00   0.00000000000000000E+00   0.00000000000000000E+00   0.00000000000000000E+00   0.00000000000000000E+00
             0.00000000000000000E+00   0.00000000000000000E+00   0.00000000000000000E+00
 ETA=    9   4.76084215938961192E+05   4.76097325387567806E+05   4.76110434027986601E+05   4.76123541030749911E+05   4.76136644974339870E+05
             4.76149741715652053E+05   4.76162826531597937E+05   4.76175894604083500E+05   4.76188942119922780E+05   4.76201965188673348E+05
             4.76214959501712350E+05   4.76227921478900535E+05   4.76240847143032297E+05   4.76253732229235407E+05   4.76266572881407803E+05
             4.76279364980518993E+05   4.76292104407135339E+05   4.76304787071527506E+05   4.76317408912722080E+05   4.76329965795780066E+05
             4.76342453777724411E+05   4.76354868878543493E+05   4.76367207118500664E+05   4.76379464620571758E+05   4.76391637557845912E+05
             4.76403721676683286E+05   4.76415713130783639E+05   4.76427607709466014E+05   4.76439402857211884E+05   4.76451106522981427E+05
             4.76462728389093594E+05   4.76474277932667348E+05   4.76485764527753345E+05   4.76497197444555815E+05   4.76508586303067917E+05
             4.76519940402029490E+05   4.76531269512727275E+05   4.76542583220996486E+05   4.76553890833054611E+05   4.76565201607924595E+05
             4.76576525418825331E+05   4.76587871235181461E+05   4.76599248792311235E+05   4.76610668020573561E+05   4.76622138257047511E+05
             4.76633669196134841E+05   4.76645270082513860E+05   4.76656950547515065E+05   4.76668719941231713E+05   4.76680587579810293E+05
             4.76692562956638983E+05   4.76704655696279428E+05   4.76716875102258113E+05   4.76729230460249819E+05   4.76741730893510277E+05
             4.76754382978965063E+05   4.76767184554666805E+05   4.76780131053160585E+05   4.76793217683707306E+05   4.76806439681456424E+05
             4.76819792168832500E+05   4.76833270060323470E+05   4.76846868419300299E+05   4.76860582182868849E+05   4.76874406304366072E+05
             4.76888335899845406E+05   4.76902366158571327E+05   4.76916491831161140E+05   4.76930708770224068E+05   4.76945012432556134E+05
             4.76959397072200314E+05   4.76973857376338041E+05   4.76988386858901533E+05   4.77002979558796214E+05   4.77017634347621934E+05
             4.77032350636576186E+05   4.77047124092372367E+05   4.77061938155779731E+05   4.77076772528826084E+05   0.00000000000000000E+00
             0.00000000000000000E+00   0.00000000000000000E+00   0.00000000000000000E+00   0.00000000000000000E+00   0.00000000000000000E+00
             0.00000000000000000E+00   0.00000000000000000E+00   0.00000000000000000E+00   0.00000000000000000E+00   0.00000000000000000E+00
             0.00000000000000000E+00   0.00000000000000000E+00   0.00000000000000000E+00   0.00000000000000000E+00   0.00000000000000000E+00
             0.00000000000000000E+00   0.00000000000000000E+00   0.00000000000000000E+00   0.00000000000000000E+00   0.00000000000000000E+00
             0.00000000000000000E+00   0.00000000000000000E+00   0.00000000000000000E+00   0.00000000000000000E+00   0.00000000000000000E+00
             0.00000000000000000E+00   0.00000000000000000E+00   0.00000000000000000E+00   0.00000000000000000E+00   0.00000000000000000E+00
             0.00000000000000000E+00   0.00000000000000000E+00   0.00000000000000000E+00   0.00000000000000000E+00   0.00000000000000000E+00
             0.00000000000000000E+00   0.00000000000000000E+00   0.00000000000000000E+00   0.00000000000000000E+00   0.00000000000000000E+00
             0.00000000000000000E+00   0.00000000000000000E+00   0.00000000000000000E+00   0.00000000000000000E+00   0.00000000000000000E+00
             0.00000000000000000E+00   0.00000000000000000E+00   0.00000000000000000E+00   0.00000000000000000E+00   0.00000000000000000E+00
             0.00000000000000000E+00   0.00000000000000000E+00   0.00000000000000000E+00   0.00000000000000000E+00   0.00000000000000000E+00
             0.00000000000000000E+00   0.00000000000000000E+00   0.00000000000000000E+00   0.00000000000000000E+00   0.00000000000000000E+00
             0.00000000000000000E+00   0.00000000000000000E+00   0.00000000000000000E+00   0.00000000000000000E+00   0.00000000000000000E+00
             0.00000000000000000E+00   0.00000000000000000E+00   0.00000000000000000E+00   0.00000000000000000E+00   0.00000000000000000E+00
             0.00000000000000000E+00   0.00000000000000000E+00   0.00000000000000000E+00   0.00000000000000000E+00   0.00000000000000000E+00
             0.00000000000000000E+00   0.00000000000000000E+00   0.00000000000000000E+00   0.00000000000000000E+00   0.00000000000000000E+00
             0.00000000000000000E+00   0.00000000000000000E+00   0.00000000000000000E+00
 ETA=   10   4.76122126841540099E+05   4.76135308536253404E+05   4.76148489629533084E+05   4.76161669519945630E+05   4.76174846849056019E+05
             4.76188017230423226E+05   4.76201175520604942E+05   4.76214316778996552E+05   4.76227436876345484E+05   4.76240531886236742E+05
             4.76253597827905323E+05   4.76266630503185152E+05   4.76279625659559737E+05   4.76292579059075855E+05   4.76305486522032705E+05
             4.76318343883292517E+05   4.76331146973815397E+05   4.76343891608952836E+05   4.76356573600154021E+05   4.76369188759913726E+05
             4.76381732904909004E+05   4.76394201852862781E+05   4.76406591421217483E+05   4.76418897426295152E+05   4.76431115684137505E+05
             4.76443242010861286E+05   4.76455272222883708E+05   4.76467202136696898E+05   4.76479029882799776E+05   4.76490762847717677E+05
             4.76502410731983138E+05   4.76513983236133587E+05   4.76525490060728334E+05   4.76536940906332049E+05   4.76548345473507768E+05
             4.76559713462812884E+05   4.76571054574802984E+05   4.76582378510034527E+05   4.76593694969065604E+05   4.76605013652455295E+05
             4.76616344260761631E+05   4.76627696494540840E+05   4.76639080054348276E+05   4.76650504640741216E+05   4.76661979954283626E+05
             4.76673515695541340E+05   4.76685121565073554E+05   4.76696807263414841E+05   4.76708582491093664E+05   4.76720456948661362E+05
             4.76732440336762404E+05   4.76744542356064718E+05   4.76756772707149154E+05   4.76769141090249759E+05   4.76781657205513795E+05
             4.76794328297209460E+05   4.76807151786089526E+05   4.76820122637027525E+05   4.76833235813689011E+05   4.76846486274906027E+05
             4.76859868978302518E+05   4.76873378886011778E+05   4.76887010978204897E+05   4.76900760239562253E+05   4.76914621637935110E+05
             4.76928590073856583E+05   4.76942660431030672E+05   4.76956827655969362E+05   4.76971086946418334E+05   4.76985433562931430E+05
             4.76999862531658553E+05   4.77014367941134085E+05   4.77028943645488471E+05   4.77043584373659396E+05   4.77058288353813696E+05
             4.77073054688925447E+05   4.77087879217143636E+05   4.77102744717316236E+05   4.77117630703466071E+05   0.00000000000000000E+00
             0.00000000000000000E+00   0.00000000000000000E+00   0.00000000000000000E+00   0.00000000000000000E+00   0.00000000000000000E+00
             0.00000000000000000E+00   0.00000000000000000E+00   0.00000000000000000E+00   0.00000000000000000E+00   0.00000000000000000E+00
             0.00000000000000000E+00   0.00000000000000000E+00   0.00000000000000000E+00   0.00000000000000000E+00   0.00000000000000000E+00
             0.00000000000000000E+00   0.00000000000000000E+00   0.00000000000000000E+00   0.00000000000000000E+00   0.00000000000000000E+00
             0.00000000000000000E+00   0.00000000000000000E+00   0.00000000000000000E+00   0.00000000000000000E+00   0.00000000000000000E+00
             0.00000000000000000E+00   0.00000000000000000E+00   0.00000000000000000E+00   0.00000000000000000E+00   0.00000000000000000E+00
             0.00000000000000000E+00   0.00000000000000000E+00   0.00000000000000000E+00   0.00000000000000000E+00   0.00000000000000000E+00
             0.00000000000000000E+00   0.00000000000000000E+00   0.00000000000000000E+00   0.00000000000000000E+00   0.00000000000000000E+00
             0.00000000000000000E+00   0.00000000000000000E+00   0.00000000000000000E+00   0.00000000000000000E+00   0.00000000000000000E+00
             0.00000000000000000E+00   0.00000000000000000E+00   0.00000000000000000E+00   0.00000000000000000E+00   0.00000000000000000E+00
             0.00000000000000000E+00   0.00000000000000000E+00   0.00000000000000000E+00   0.00000000000000000E+00   0.00000000000000000E+00
             0.00000000000000000E+00   0.00000000000000000E+00   0.00000000000000000E+00   0.00000000000000000E+00   0.00000000000000000E+00
             0.00000000000000000E+00   0.00000000000000000E+00   0.00000000000000000E+00   0.00000000000000000E+00   0.00000000000000000E+00
             0.00000000000000000E+00   0.00000000000000000E+00   0.00000000000000000E+00   0.00000000000000000E+00   0.00000000000000000E+00
             0.00000000000000000E+00   0.00000000000000000E+00   0.00000000000000000E+00   0.00000000000000000E+00   0.00000000000000000E+00
             0.00000000000000000E+00   0.00000000000000000E+00   0.00000000000000000E+00   0.00000000000000000E+00   0.00000000000000000E+00
             0.00000000000000000E+00   0.00000000000000000E+00   0.00000000000000000E+00
 ETA=   11   4.76160173879849841E+05   4.76173429087203229E+05   4.76186683803527849E+05   4.76199937573382515E+05   4.76213189211530436E+05
             4.76226434153616370E+05   4.76239667110538401E+05   4.76252882765547663E+05   4.76266076952692936E+05   4.76279245487878623E+05
             4.76292384305694257E+05   4.76305488980010326E+05   4.76318555216153793E+05   4.76331578487117949E+05   4.76344554610128107E+05
             4.76357479189215112E+05   4.76370347851191123E+05   4.76383156175614451E+05   4.76395899794241064E+05   4.76408574784529745E+05
             4.76421176370548084E+05   4.76433700263968785E+05   4.76446142186588608E+05   4.76458497804327344E+05   4.76470762845418707E+05
             4.76482932732243440E+05   4.76495003479631501E+05   4.76506970864677103E+05   4.76518832942525914E+05   4.76530597144328582E+05
             4.76542273270954203E+05   4.76553871019866783E+05   4.76565400214892696E+05   4.76576870684689144E+05   4.76588292590900208E+05
             4.76599675657278218E+05   4.76611030067311833E+05   4.76622366227264691E+05   4.76633693415469141E+05   4.76645021276285814E+05
             4.76656360046212096E+05   4.76667719051100663E+05   4.76679108363456384E+05   4.76690538262975111E+05   4.76702018473767210E+05
             4.76713559091099771E+05   4.76725170192146965E+05   4.76736861544232699E+05   4.76748643066360790E+05   4.76760524650302134E+05
             4.76772516278682626E+05   4.76784628074639244E+05   4.76796869962383644E+05   4.76809252104103740E+05   4.76821784625704517E+05
             4.76834475309913862E+05   4.76847321106493589E+05   4.76860316763166978E+05   4.76873456912825757E+05   4.76886736499942082E+05
             4.76900150466585590E+05   4.76913693543511850E+05   4.76927360515840526E+05   4.76941146038541978E+05   4.76955045163115487E+05
             4.76969052558018942E+05   4.76983163340181112E+05   4.76997372207247012E+05   4.77011674955363211E+05   4.77026067002027004E+05
             4.77040542594215192E+05   4.77055096319415024E+05   4.77069721625305130E+05   4.77084412853189628E+05   4.77099168456321000E+05
             4.77113987797264301E+05   4.77128866379902523E+05   4.77143787013365130E+05   4.77158728659520682E+05   0.00000000000000000E+00
             0.00000000000000000E+00   0.00000000000000000E+00   0.00000000000000000E+00   0.00000000000000000E+00   0.00000000000000000E+00
             0.00000000000000000E+00   0.00000000000000000E+00   0.00000000000000000E+00   0.00000000000000000E+00   0.00000000000000000E+00
             0.00000000000000000E+00   0.00000000000000000E+00   0.00000000000000000E+00   0.00000000000000000E+00   0.00000000000000000E+00
             0.00000000000000000E+00   0.00000000000000000E+00   0.00000000000000000E+00   0.00000000000000000E+00   0.00000000000000000E+00
             0.00000000000000000E+00   0.00000000000000000E+00   0.00000000000000000E+00   0.00000000000000000E+00   0.00000000000000000E+00
             0.00000000000000000E+00   0.00000000000000000E+00   0.00000000000000000E+00   0.00000000000000000E+00   0.00000000000000000E+00
             0.00000000000000000E+00   0.00000000000000000E+00   0.00000000000000000E+00   0.00000000000000000E+00   0.00000000000000000E+00
             0.00000000000000000E+00   0.00000000000000000E+00   0.00000000000000000E+00   0.00000000000000000E+00   0.00000000000000000E+00
             0.00000000000000000E+00   0.00000000000000000E+00   0.00000000000000000E+00   0.00000000000000000E+00   0.00000000000000000E+00
             0.00000000000000000E+00   0.00000000000000000E+00   0.00000000000000000E+00   0.00000000000000000E+00   0.00000000000000000E+00
             0.00000000000000000E+00   0.00000000000000000E+00   0.00000000000000000E+00   0.00000000000000000E+00   0.00000000000000000E+00
             0.00000000000000000E+00   0.00000000000000000E+00   0.00000000000000000E+00   0.00000000000000000E+00   0.00000000000000000E+00
             0.00000000000000000E+00   0.00000000000000000E+00   0.00000000000000000E+00   0.00000000000000000E+00   0.00000000000000000E+00
             0.00000000000000000E+00   0.00000000000000000E+00   0.00000000000000000E+00   0.00000000000000000E+00   0.00000000000000000E+00
             0.00000000000000000E+00   0.00000000000000000E+00   0.00000000000000000E+00   0.00000000000000000E+00   0.00000000000000000E+00
             0.00000000000000000E+00   0.00000000000000000E+00   0.00000000000000000E+00   0.00000000000000000E+00   0.00000000000000000E+00
             0.00000000000000000E+00   0.00000000000000000E+00   0.00000000000000000E+00
 ETA=   12   4.76198350782144174E+05   4.76211680408118817E+05   4.76225009752478625E+05   4.76238338509382738E+05   4.76251665344289213E+05
             4.76264985839916684E+05   4.76278294563050848E+05   4.76291585861293308E+05   4.76304855492915085E+05   4.76318099014932290E+05
             4.76331311895379215E+05   4.76344489864671312E+05   4.76357628583725134E+05   4.76370723259827704E+05   4.76383769687555847E+05
             4.76396763230715005E+05   4.76409699016143044E+05   4.76422572688182059E+05   4.76435379682552535E+05   4.76448115655371512E+05
             4.76460775935700396E+05   4.76473356111091096E+05   4.76485851527143561E+05   4.76498257994902669E+05   4.76510571130088705E+05
             4.76522786127041443E+05   4.76534899051003275E+05   4.76546905608004890E+05   4.76558803648057277E+05   4.76570600807858806E+05
             4.76582306953529827E+05   4.76593931667808036E+05   4.76605485048507573E+05   4.76616977011499577E+05   4.76628417567501485E+05
             4.76639817123319372E+05   4.76651186299552792E+05   4.76662535889865714E+05   4.76673875119517150E+05   4.76685213523621438E+05
             4.76696560912597226E+05   4.76707927252444322E+05   4.76719322932583513E+05   4.76730758293081599E+05   4.76742243656862120E+05
             4.76753789456421509E+05   4.76765406061698392E+05   4.76777103448626061E+05   4.76788891696027713E+05   4.76800780717146408E+05
             4.76812781003293116E+05   4.76824903044359060E+05   4.76837157035930257E+05   4.76849553613764234E+05   4.76862103277806484E+05
             4.76874813918166037E+05   4.76887682492145803E+05   4.76900703485671722E+05   4.76913871187565557E+05   4.76927180579382402E+05
             4.76940626555805444E+05   4.76954203645715315E+05   4.76967906437209691E+05   4.76981729232188314E+05   4.76995666521777865E+05
             4.77009713401008805E+05   4.77023865207079216E+05   4.77038116837569221E+05   4.77052464257769811E+05   4.77066903034128074E+05
             4.77081427591831540E+05   4.77096032074691146E+05   4.77110709514159826E+05   4.77125453613319492E+05   4.77140263304272026E+05
             4.77155138204908057E+05   4.77170073936578236E+05   4.77185052886699734E+05   4.77200053452681983E+05   0.00000000000000000E+00
             0.00000000000000000E+00   0.00000000000000000E+00   0.00000000000000000E+00   0.00000000000000000E+00   0.00000000000000000E+00
             0.00000000000000000E+00   0.00000000000000000E+00   0.00000000000000000E+00   0.00000000000000000E+00   0.00000000000000000E+00
             0.00000000000000000E+00   0.00000000000000000E+00   0.00000000000000000E+00   0.00000000000000000E+00   0.00000000000000000E+00
             0.00000000000000000E+00   0.00000000000000000E+00   0.00000000000000000E+00   0.00000000000000000E+00   0.00000000000000000E+00
             0.00000000000000000E+00   0.00000000000000000E+00   0.00000000000000000E+00   0.00000000000000000E+00   0.00000000000000000E+00
             0.00000000000000000E+00   0.00000000000000000E+00   0.00000000000000000E+00   0.00000000000000000E+00   0.00000000000000000E+00
             0.00000000000000000E+00   0.00000000000000000E+00   0.00000000000000000E+00   0.00000000000000000E+00   0.00000000000000000E+00
             0.00000000000000000E+00   0.00000000000000000E+00   0.00000000000000000E+00   0.00000000000000000E+00   0.00000000000000000E+00
             0.00000000000000000E+00   0.00000000000000000E+00   0.00000000000000000E+00   0.00000000000000000E+00   0.00000000000000000E+00
             0.00000000000000000E+00   0.00000000000000000E+00   0.00000000000000000E+00   0.00000000000000000E+00   0.00000000000000000E+00
             0.00000000000000000E+00   0.00000000000000000E+00   0.00000000000000000E+00   0.00000000000000000E+00   0.00000000000000000E+00
             0.00000000000000000E+00   0.00000000000000000E+00   0.00000000000000000E+00   0.00000000000000000E+00   0.00000000000000000E+00
             0.00000000000000000E+00   0.00000000000000000E+00   0.00000000000000000E+00   0.00000000000000000E+00   0.00000000000000000E+00
             0.00000000000000000E+00   0.00000000000000000E+00   0.00000000000000000E+00   0.00000000000000000E+00   0.00000000000000000E+00
             0.00000000000000000E+00   0.00000000000000000E+00   0.00000000000000000E+00   0.00000000000000000E+00   0.00000000000000000E+00
             0.00000000000000000E+00   0.00000000000000000E+00   0.00000000000000000E+00   0.00000000000000000E+00   0.00000000000000000E+00
             0.00000000000000000E+00   0.00000000000000000E+00   0.00000000000000000E+00
 ETA=   13   4.76236648499629868E+05   4.76250053488111123E+05   4.76263458314664138E+05   4.76276862817361136E+05   4.76290265929733752E+05
             4.76303662967153010E+05   4.76317048340449866E+05   4.76330416606241721E+05   4.76343762904292962E+05   4.76357082520154654E+05
             4.76370370792706613E+05   4.76383623274144891E+05   4.76396835569993884E+05   4.76410003203606931E+05   4.76423121369651170E+05
             4.76436185180621804E+05   4.76449189768256270E+05   4.76462130341259006E+05   4.76475002127576328E+05   4.76487800392428064E+05
             4.76500520550128305E+05   4.76513158052264713E+05   4.76525708356458868E+05   4.76538166944468510E+05   4.76550529304085183E+05
             4.76562790944120323E+05   4.76574947457464586E+05   4.76586994458028174E+05   4.76598929941819923E+05   4.76610761433243169E+05
             4.76622498838799540E+05   4.76634152076090453E+05   4.76645731107115804E+05   4.76657245904975163E+05   4.76668706617515651E+05
             4.76680124091574864E+05   4.76691509348738124E+05   4.76702873137316608E+05   4.76714225112525164E+05   4.76725574656304962E+05
             4.76736931363456883E+05   4.76748305680222460E+05   4.76759708265703171E+05   4.76771149788832292E+05   4.76782640957869648E+05
             4.76794192490906920E+05   4.76805815017246816E+05   4.76817518811037007E+05   4.76829314057636249E+05   4.76841211045869219E+05
             4.76853220478423871E+05   4.76865353161453910E+05   4.76877619904568593E+05   4.76890031531200686E+05   4.76902598868238390E+05
             4.76915329968692735E+05   4.76928221790065174E+05   4.76941268515979988E+05   4.76954464435714355E+05   4.76967804261157056E+05
             4.76981282809850120E+05   4.76994894750893407E+05   4.77008634159619571E+05   4.77022494962919154E+05   4.77036471357051749E+05
             4.77050558615752845E+05   4.77064752282126807E+05   4.77079047926287632E+05   4.77093441226388386E+05   4.77107927887591650E+05
             4.77122503098935937E+05   4.77137159984962607E+05   4.77151891154088778E+05   4.77166690425698529E+05   4.77181556463044020E+05
             4.77196489140344376E+05   4.77211484657550231E+05   4.77226524517538783E+05   4.77241586548918625E+05   0.00000000000000000E+00
             0.00000000000000000E+00   0.00000000000000000E+00   0.00000000000000000E+00   0.00000000000000000E+00   0.00000000000000000E+00
             0.00000000000000000E+00   0.00000000000000000E+00   0.00000000000000000E+00   0.00000000000000000E+00   0.00000000000000000E+00
             0.00000000000000000E+00   0.00000000000000000E+00   0.00000000000000000E+00   0.00000000000000000E+00   0.00000000000000000E+00
             0.00000000000000000E+00   0.00000000000000000E+00   0.00000000000000000E+00   0.00000000000000000E+00   0.00000000000000000E+00
             0.00000000000000000E+00   0.00000000000000000E+00   0.00000000000000000E+00   0.00000000000000000E+00   0.00000000000000000E+00
             0.00000000000000000E+00   0.00000000000000000E+00   0.00000000000000000E+00   0.00000000000000000E+00   0.00000000000000000E+00
             0.00000000000000000E+00   0.00000000000000000E+00   0.00000000000000000E+00   0.00000000000000000E+00   0.00000000000000000E+00
             0.00000000000000000E+00   0.00000000000000000E+00   0.00000000000000000E+00   0.00000000000000000E+00   0.00000000000000000E+00
             0.00000000000000000E+00   0.00000000000000000E+00   0.00000000000000000E+00   0.00000000000000000E+00   0.00000000000000000E+00
             0.00000000000000000E+00   0.00000000000000000E+00   0.00000000000000000E+00   0.00000000000000000E+00   0.00000000000000000E+00
             0.00000000000000000E+00   0.00000000000000000E+00   0.00000000000000000E+00   0.00000000000000000E+00   0.00000000000000000E+00
             0.00000000000000000E+00   0.00000000000000000E+00   0.00000000000000000E+00   0.00000000000000000E+00   0.00000000000000000E+00
             0.00000000000000000E+00   0.00000000000000000E+00   0.00000000000000000E+00   0.00000000000000000E+00   0.00000000000000000E+00
             0.00000000000000000E+00   0.00000000000000000E+00   0.00000000000000000E+00   0.00000000000000000E+00   0.00000000000000000E+00
             0.00000000000000000E+00   0.00000000000000000E+00   0.00000000000000000E+00   0.00000000000000000E+00   0.00000000000000000E+00
             0.00000000000000000E+00   0.00000000000000000E+00   0.00000000000000000E+00   0.00000000000000000E+00   0.00000000000000000E+00
             0.00000000000000000E+00   0.00000000000000000E+00   0.00000000000000000E+00
 ETA=   14   4.76275058145616727E+05   4.76288539176576189E+05   4.76302020204411703E+05   4.76315501262787671E+05   4.76328981500473979E+05
             4.76342456041140307E+05   4.76355919130975381E+05   4.76369365302083839E+05   4.76382789317415503E+05   4.76396186238448194E+05
             4.76409550920786161E+05   4.76422879073767166E+05   4.76436166216620361E+05   4.76449407917675446E+05   4.76462599036723899E+05
             4.76475734504847089E+05   4.76488809347131522E+05   4.76501818291984440E+05   4.76514756188731000E+05   4.76527617970951775E+05
             4.76540399056796625E+05   4.76553094984175172E+05   4.76565701295477571E+05   4.76578213281182048E+05   4.76590626286925632E+05
             4.76602935794743011E+05   4.76615137101803790E+05   4.76627225712079322E+05   4.76639199739841686E+05   4.76651066570617550E+05
             4.76662836296089401E+05   4.76674518980233930E+05   4.76686124743102526E+05   4.76697663787342492E+05   4.76709146403290913E+05
             4.76720583326224063E+05   4.76731985502644500E+05   4.76743364245291392E+05   4.76754728964672366E+05   4.76766089576161874E+05
             4.76777455991047143E+05   4.76788838972535974E+05   4.76800249429691059E+05   4.76811698249966081E+05   4.76823196180972795E+05
             4.76834754109894275E+05   4.76846383121022489E+05   4.76858093544105184E+05   4.76869896073483571E+05   4.76881801383753947E+05
             4.76893820480663795E+05   4.76905964518577617E+05   4.76918244660679193E+05   4.76930671881347487E+05   4.76943257323651458E+05
             4.76956009398049850E+05   4.76968924835690297E+05   4.76981997775613097E+05   4.76995222396422061E+05   4.77008593243118143E+05
             4.77022105011338426E+05   4.77035752318953804E+05   4.77049528930159344E+05   4.77063428609042370E+05   4.77077445003865985E+05
             4.77091573837956763E+05   4.77105810775546241E+05   4.77120151656012808E+05   4.77134592030518223E+05   4.77149127662033308E+05
             4.77163754058674793E+05   4.77178464150686050E+05   4.77193250636541867E+05   4.77208106508931960E+05   4.77223031105818111E+05
             4.77238024078905524E+05   4.77253081553362950E+05   4.77268184367581154E+05   4.77283309839288937E+05   0.00000000000000000E+00
             0.00000000000000000E+00   0.00000000000000000E+00   0.00000000000000000E+00   0.00000000000000000E+00   0.00000000000000000E+00
             0.00000000000000000E+00   0.00000000000000000E+00   0.00000000000000000E+00   0.00000000000000000E+00   0.00000000000000000E+00
             0.00000000000000000E+00   0.00000000000000000E+00   0.00000000000000000E+00   0.00000000000000000E+00   0.00000000000000000E+00
             0.00000000000000000E+00   0.00000000000000000E+00   0.00000000000000000E+00   0.00000000000000000E+00   0.00000000000000000E+00
             0.00000000000000000E+00   0.00000000000000000E+00   0.00000000000000000E+00   0.00000000000000000E+00   0.00000000000000000E+00
             0.00000000000000000E+00   0.00000000000000000E+00   0.00000000000000000E+00   0.00000000000000000E+00   0.00000000000000000E+00
             0.00000000000000000E+00   0.00000000000000000E+00   0.00000000000000000E+00   0.00000000000000000E+00   0.00000000000000000E+00
             0.00000000000000000E+00   0.00000000000000000E+00   0.00000000000000000E+00   0.00000000000000000E+00   0.00000000000000000E+00
             0.00000000000000000E+00   0.00000000000000000E+00   0.00000000000000000E+00   0.00000000000000000E+00   0.00000000000000000E+00
             0.00000000000000000E+00   0.00000000000000000E+00   0.00000000000000000E+00   0.00000000000000000E+00   0.00000000000000000E+00
             0.00000000000000000E+00   0.00000000000000000E+00   0.00000000000000000E+00   0.00000000000000000E+00   0.00000000000000000E+00
             0.00000000000000000E+00   0.00000000000000000E+00   0.00000000000000000E+00   0.00000000000000000E+00   0.00000000000000000E+00
             0.00000000000000000E+00   0.00000000000000000E+00   0.00000000000000000E+00   0.00000000000000000E+00   0.00000000000000000E+00
             0.00000000000000000E+00   0.00000000000000000E+00   0.00000000000000000E+00   0.00000000000000000E+00   0.00000000000000000E+00
             0.00000000000000000E+00   0.00000000000000000E+00   0.00000000000000000E+00   0.00000000000000000E+00   0.00000000000000000E+00
             0.00000000000000000E+00   0.00000000000000000E+00   0.00000000000000000E+00   0.00000000000000000E+00   0.00000000000000000E+00
             0.00000000000000000E+00   0.00000000000000000E+00   0.00000000000000000E+00
 ETA=   15   4.76313571481826948E+05   4.76327129223493161E+05   4.76340687224102381E+05   4.76354245715352998E+05   4.76367803837002721E+05
             4.76381356747818470E+05   4.76394898526597884E+05   4.76408423352640413E+05   4.76421925943120557E+05   4.76435401133298641E+05
             4.76448843272929953E+05   4.76462248253852187E+05   4.76475611501024629E+05   4.76488928291996010E+05   4.76502193491934799E+05
             4.76515401841630985E+05   4.76528547989824845E+05   4.76541626460352389E+05   4.76554631713158509E+05   4.76567558044153964E+05
             4.76580401190408214E+05   4.76593156758110854E+05   4.76605820154369518E+05   4.76618386712157400E+05   4.76630851612447819E+05
             4.76643209962952475E+05   4.76655457134162949E+05   4.76667588491428702E+05   4.76679601858531416E+05   4.76691504925827496E+05
             4.76703307935671881E+05   4.76715020920693933E+05   4.76726654377116240E+05   4.76738218696888594E+05   4.76749724190929497E+05
             4.76761181647745252E+05   4.76772601891304017E+05   4.76783995830228610E+05   4.76795373648673878E+05   4.76806745744948683E+05
             4.76818122405429429E+05   4.76829514703541761E+05   4.76840933743032103E+05   4.76852390505532443E+05   4.76863895956374239E+05
             4.76875461092472135E+05   4.76887096896568954E+05   4.76898814365903439E+05   4.76910624644888740E+05   4.76922538709646615E+05
             4.76934568010809191E+05   4.76946723994080967E+05   4.76959017965716252E+05   4.76971461316017027E+05   4.76984065451625327E+05
             4.76996838852700486E+05   4.77009778360282828E+05   4.77022878026425431E+05   4.77036131800123490E+05   4.77049534216684522E+05
             4.77063079817813472E+05   4.77076762953309924E+05   4.77090577318468713E+05   4.77104516492426046E+05   4.77118573879787175E+05
             4.77132745370837802E+05   4.77147026736841479E+05   4.77161413781498559E+05   4.77175902246361249E+05   4.77190487942102947E+05
             4.77205166248842026E+05   4.77219930356939964E+05   4.77234773050623538E+05   4.77249687278729689E+05   4.77264672281585285E+05
             4.77279727483302238E+05   4.77294848609147186E+05   4.77310016153242264E+05   4.77325206915210350E+05   0.00000000000000000E+00
             0.00000000000000000E+00   0.00000000000000000E+00   0.00000000000000000E+00   0.00000000000000000E+00   0.00000000000000000E+00
             0.00000000000000000E+00   0.00000000000000000E+00   0.00000000000000000E+00   0.00000000000000000E+00   0.00000000000000000E+00
             0.00000000000000000E+00   0.00000000000000000E+00   0.00000000000000000E+00   0.00000000000000000E+00   0.00000000000000000E+00
             0.00000000000000000E+00   0.00000000000000000E+00   0.00000000000000000E+00   0.00000000000000000E+00   0.00000000000000000E+00
             0.00000000000000000E+00   0.00000000000000000E+00   0.00000000000000000E+00   0.00000000000000000E+00   0.00000000000000000E+00
             0.00000000000000000E+00   0.00000000000000000E+00   0.00000000000000000E+00   0.00000000000000000E+00   0.00000000000000000E+00
             0.00000000000000000E+00   0.00000000000000000E+00   0.00000000000000000E+00   0.00000000000000000E+00   0.00000000000000000E+00
             0.00000000000000000E+00   0.00000000000000000E+00   0.00000000000000000E+00   0.00000000000000000E+00   0.00000000000000000E+00
             0.00000000000000000E+00   0.00000000000000000E+00   0.00000000000000000E+00   0.00000000000000000E+00   0.00000000000000000E+00
             0.00000000000000000E+00   0.00000000000000000E+00   0.00000000000000000E+00   0.00000000000000000E+00   0.00000000000000000E+00
             0.00000000000000000E+00   0.00000000000000000E+00   0.00000000000000000E+00   0.00000000000000000E+00   0.00000000000000000E+00
             0.00000000000000000E+00   0.00000000000000000E+00   0.00000000000000000E+00   0.00000000000000000E+00   0.00000000000000000E+00
             0.00000000000000000E+00   0.00000000000000000E+00   0.00000000000000000E+00   0.00000000000000000E+00   0.00000000000000000E+00
             0.00000000000000000E+00   0.00000000000000000E+00   0.00000000000000000E+00   0.00000000000000000E+00   0.00000000000000000E+00
             0.00000000000000000E+00   0.00000000000000000E+00   0.00000000000000000E+00   0.00000000000000000E+00   0.00000000000000000E+00
             0.00000000000000000E+00   0.00000000000000000E+00   0.00000000000000000E+00   0.00000000000000000E+00   0.00000000000000000E+00
             0.00000000000000000E+00   0.00000000000000000E+00   0.00000000000000000E+00
 ETA=   16   4.76352180432085879E+05   4.76365815827418119E+05   4.76379451648430375E+05   4.76393088320802839E+05   4.76406725182894792E+05
             4.76420357223782165E+05   4.76433978345220210E+05   4.76447582565258432E+05   4.76461164367123856E+05   4.76474718350337760E+05
             4.76488239234839450E+05   4.76501722222239710E+05   4.76515162634567125E+05   4.76528555663513194E+05   4.76541895979420980E+05
             4.76555178122296056E+05   4.76568396551853453E+05   4.76581545406645106E+05   4.76594618744931999E+05   4.76607610892406257E+05
             4.76620517244483694E+05   4.76633333464011026E+05   4.76646055103179766E+05   4.76658677271560766E+05   4.76671194968069671E+05
             4.76683603225244675E+05   4.76695897210114636E+05   4.76708072123330960E+05   4.76720125692896370E+05   4.76732065756218450E+05
             4.76743902678056038E+05   4.76755646854044462E+05   4.76767308803324995E+05   4.76778899075915280E+05   4.76790428241151210E+05
             4.76801906945641444E+05   4.76813345855312888E+05   4.76824755665341334E+05   4.76836147187898401E+05   4.76847531264404824E+05
             4.76858918804995541E+05   4.76870320994662819E+05   4.76881749087113247E+05   4.76893214303291810E+05   4.76904727733097097E+05
             4.76916300433666271E+05   4.76927943543121335E+05   4.76939668523525295E+05   4.76951486917926173E+05   4.76963410293340334E+05
             4.76975450312658213E+05   4.76987618662738707E+05   4.76999927019841620E+05   4.77012387017830973E+05   4.77025010279971873E+05
             4.77037805479766394E+05   4.77050769491664891E+05   4.77063896240354690E+05   4.77077179722801025E+05   4.77090614225080993E+05
             4.77104194105549599E+05   4.77117913558531785E+05   4.77131766122232890E+05   4.77145745170828304E+05   4.77159844493589771E+05
             4.77174059540174843E+05   4.77188386175337306E+05   4.77202820261011948E+05   4.77217357647856406E+05   4.77231994183708797E+05
             4.77246725219043030E+05   4.77261544114873977E+05   4.77276443734851957E+05   4.77291417997698241E+05   4.77306465042418626E+05
             4.77321584063089977E+05   4.77336770434218983E+05   4.77352004252033192E+05   4.77367261793189973E+05   0.00000000000000000E+00
             0.00000000000000000E+00   0.00000000000000000E+00   0.00000000000000000E+00   0.00000000000000000E+00   0.00000000000000000E+00
             0.00000000000000000E+00   0.00000000000000000E+00   0.00000000000000000E+00   0.00000000000000000E+00   0.00000000000000000E+00
             0.00000000000000000E+00   0.00000000000000000E+00   0.00000000000000000E+00   0.00000000000000000E+00   0.00000000000000000E+00
             0.00000000000000000E+00   0.00000000000000000E+00   0.00000000000000000E+00   0.00000000000000000E+00   0.00000000000000000E+00
             0.00000000000000000E+00   0.00000000000000000E+00   0.00000000000000000E+00   0.00000000000000000E+00   0.00000000000000000E+00
             0.00000000000000000E+00   0.00000000000000000E+00   0.00000000000000000E+00   0.00000000000000000E+00   0.00000000000000000E+00
             0.00000000000000000E+00   0.00000000000000000E+00   0.00000000000000000E+00   0.00000000000000000E+00   0.00000000000000000E+00
             0.00000000000000000E+00   0.00000000000000000E+00   0.00000000000000000E+00   0.00000000000000000E+00   0.00000000000000000E+00
             0.00000000000000000E+00   0.00000000000000000E+00   0.00000000000000000E+00   0.00000000000000000E+00   0.00000000000000000E+00
             0.00000000000000000E+00   0.00000000000000000E+00   0.00000000000000000E+00   0.00000000000000000E+00   0.00000000000000000E+00
             0.00000000000000000E+00   0.00000000000000000E+00   0.00000000000000000E+00   0.00000000000000000E+00   0.00000000000000000E+00
             0.00000000000000000E+00   0.00000000000000000E+00   0.00000000000000000E+00   0.00000000000000000E+00   0.00000000000000000E+00
             0.00000000000000000E+00   0.00000000000000000E+00   0.00000000000000000E+00   0.00000000000000000E+00   0.00000000000000000E+00
             0.00000000000000000E+00   0.00000000000000000E+00   0.00000000000000000E+00   0.00000000000000000E+00   0.00000000000000000E+00
             0.00000000000000000E+00   0.00000000000000000E+00   0.00000000000000000E+00   0.00000000000000000E+00   0.00000000000000000E+00
             0.00000000000000000E+00   0.00000000000000000E+00   0.00000000000000000E+00   0.00000000000000000E+00   0.00000000000000000E+00
             0.00000000000000000E+00   0.00000000000000000E+00   0.00000000000000000E+00
 ETA=   17   4.76390876876783266E+05   4.76404590816985001E+05   4.76418305326528614E+05   4.76432021014294936E+05   4.76445737467320345E+05
             4.76459449324008368E+05   4.76473150210635911E+05   4.76486834099198517E+05   4.76500495425424946E+05   4.76514128986391181E+05
             4.76527729405944701E+05   4.76541291670449486E+05   4.76554810610845103E+05   4.76568281116726343E+05   4.76581697468345694E+05
             4.76595054026710684E+05   4.76608345199116040E+05   4.76621564939758624E+05   4.76634707275356806E+05   4.76647766124334477E+05
             4.76660736941882526E+05   4.76673615105962672E+05   4.76686396150005225E+05   4.76699074808909791E+05   4.76711646022296976E+05
             4.76724105111869401E+05   4.76736446703537542E+05   4.76748665879847365E+05   4.76760760377020168E+05   4.76772738028218097E+05
             4.76784609418251319E+05   4.76796385536744376E+05   4.76808076574326085E+05   4.76819693243459100E+05   4.76831246443427575E+05
             4.76842746657602373E+05   4.76854204678846756E+05   4.76865630998361739E+05   4.76877037001133431E+05   4.76888433899270429E+05
             4.76899832986648777E+05   4.76911245530211425E+05   4.76922683022640937E+05   4.76934156934772443E+05   4.76945678495571308E+05
             4.76957259070642525E+05   4.76968909923582745E+05   4.76980642927029869E+05   4.76992470018237887E+05   4.77004403311743285E+05
             4.77016454496822436E+05   4.77028635605180811E+05   4.77040958884835709E+05   4.77053435947334336E+05   4.77066078777491872E+05
             4.77078896194402827E+05   4.77091885096381302E+05   4.77105039358917275E+05   4.77118353127497656E+05   4.77131820176806301E+05
             4.77145434657528123E+05   4.77159190652367310E+05   4.77173081647837244E+05   4.77187101138800674E+05   4.77201242851357150E+05
             4.77215502239333466E+05   4.77229875041229476E+05   4.77244357035540801E+05   4.77258944011723797E+05   4.77273631837003515E+05
             4.77288416071106796E+05   4.77303290333312121E+05   4.77318247960914974E+05   4.77333283251836605E+05   4.77348393813857168E+05
             4.77363578230185783E+05   4.77378831277551595E+05   4.77394132604273967E+05   4.77409458058300661E+05   0.00000000000000000E+00
             0.00000000000000000E+00   0.00000000000000000E+00   0.00000000000000000E+00   0.00000000000000000E+00   0.00000000000000000E+00
             0.00000000000000000E+00   0.00000000000000000E+00   0.00000000000000000E+00   0.00000000000000000E+00   0.00000000000000000E+00
             0.00000000000000000E+00   0.00000000000000000E+00   0.00000000000000000E+00   0.00000000000000000E+00   0.00000000000000000E+00
             0.00000000000000000E+00   0.00000000000000000E+00   0.00000000000000000E+00   0.00000000000000000E+00   0.00000000000000000E+00
             0.00000000000000000E+00   0.00000000000000000E+00   0.00000000000000000E+00   0.00000000000000000E+00   0.00000000000000000E+00
             0.00000000000000000E+00   0.00000000000000000E+00   0.00000000000000000E+00   0.00000000000000000E+00   0.00000000000000000E+00
             0.00000000000000000E+00   0.00000000000000000E+00   0.00000000000000000E+00   0.00000000000000000E+00   0.00000000000000000E+00
             0.00000000000000000E+00   0.00000000000000000E+00   0.00000000000000000E+00   0.00000000000000000E+00   0.00000000000000000E+00
             0.00000000000000000E+00   0.00000000000000000E+00   0.00000000000000000E+00   0.00000000000000000E+00   0.00000000000000000E+00
             0.00000000000000000E+00   0.00000000000000000E+00   0.00000000000000000E+00   0.00000000000000000E+00   0.00000000000000000E+00
             0.00000000000000000E+00   0.00000000000000000E+00   0.00000000000000000E+00   0.00000000000000000E+00   0.00000000000000000E+00
             0.00000000000000000E+00   0.00000000000000000E+00   0.00000000000000000E+00   0.00000000000000000E+00   0.00000000000000000E+00
             0.00000000000000000E+00   0.00000000000000000E+00   0.00000000000000000E+00   0.00000000000000000E+00   0.00000000000000000E+00
             0.00000000000000000E+00   0.00000000000000000E+00   0.00000000000000000E+00   0.00000000000000000E+00   0.00000000000000000E+00
             0.00000000000000000E+00   0.00000000000000000E+00   0.00000000000000000E+00   0.00000000000000000E+00   0.00000000000000000E+00
             0.00000000000000000E+00   0.00000000000000000E+00   0.00000000000000000E+00   0.00000000000000000E+00   0.00000000000000000E+00
             0.00000000000000000E+00   0.00000000000000000E+00   0.00000000000000000E+00
 ETA=   18   4.76429652522567427E+05   4.76443445556333463E+05   4.76457239413892035E+05   4.76471034888636263E+05   4.76484831391110260E+05
             4.76498623636658653E+05   4.76512404970202188E+05   4.76526168891668436E+05   4.76539910219357582E+05   4.76553623943061451E+05
             4.76567304670157551E+05   4.76580947096134943E+05   4.76594545552405296E+05   4.76608094208167749E+05   4.76621587376005133E+05
             4.76635019228928140E+05   4.76648383701420680E+05   4.76661674991338165E+05   4.76674887084668502E+05   4.76688013642723206E+05
             4.76701050036586006E+05   4.76713991344645096E+05   4.76726832595768035E+05   4.76739568650183210E+05   4.76752194367987511E+05
             4.76764704820543935E+05   4.76777094657108304E+05   4.76789358812265913E+05   4.76801494673845067E+05   4.76813510462975013E+05
             4.76825416949269420E+05   4.76837225177021523E+05   4.76848945591097407E+05   4.76860589025494701E+05   4.76872166252631345E+05
[...]
             3.61790825150383450E+06   3.61786589247896196E+06   3.61782355936614657E+06   3.61778125411320059E+06   3.61773896911044093E+06
             3.61769669618675625E+06   3.61765442150402581E+06   3.61761213551095361E+06   3.61756982295517903E+06   3.61752747185082082E+06
             3.61748509289635392E+06   3.61744270003152359E+06   0.00000000000000000E+00   0.00000000000000000E+00   0.00000000000000000E+00
             0.00000000000000000E+00   0.00000000000000000E+00   0.00000000000000000E+00   0.00000000000000000E+00   0.00000000000000000E+00
             0.00000000000000000E+00   0.00000000000000000E+00   0.00000000000000000E+00   0.00000000000000000E+00   0.00000000000000000E+00
             0.00000000000000000E+00   0.00000000000000000E+00   0.00000000000000000E+00   0.00000000000000000E+00   0.00000000000000000E+00
             0.00000000000000000E+00   0.00000000000000000E+00   0.00000000000000000E+00   0.00000000000000000E+00   0.00000000000000000E+00
             0.00000000000000000E+00   0.00000000000000000E+00   0.00000000000000000E+00   0.00000000000000000E+00   0.00000000000000000E+00
             0.00000000000000000E+00   0.00000000000000000E+00   0.00000000000000000E+00   0.00000000000000000E+00   0.00000000000000000E+00
             0.00000000000000000E+00   0.00000000000000000E+00   0.00000000000000000E+00
 ETA=  418   0.00000000000000000E+00   0.00000000000000000E+00   0.00000000000000000E+00   0.00000000000000000E+00   0.00000000000000000E+00
             0.00000000000000000E+00   0.00000000000000000E+00   0.00000000000000000E+00   0.00000000000000000E+00   0.00000000000000000E+00
             0.00000000000000000E+00   0.00000000000000000E+00   0.00000000000000000E+00   0.00000000000000000E+00   0.00000000000000000E+00
             0.00000000000000000E+00   0.00000000000000000E+00   0.00000000000000000E+00   0.00000000000000000E+00   0.00000000000000000E+00
             0.00000000000000000E+00   0.00000000000000000E+00   0.00000000000000000E+00   0.00000000000000000E+00   0.00000000000000000E+00
             0.00000000000000000E+00   0.00000000000000000E+00   0.00000000000000000E+00   0.00000000000000000E+00   0.00000000000000000E+00
             0.00000000000000000E+00   0.00000000000000000E+00   0.00000000000000000E+00   0.00000000000000000E+00   0.00000000000000000E+00
             0.00000000000000000E+00   0.00000000000000000E+00   0.00000000000000000E+00   0.00000000000000000E+00   0.00000000000000000E+00
             0.00000000000000000E+00   0.00000000000000000E+00   0.00000000000000000E+00   0.00000000000000000E+00   0.00000000000000000E+00
             0.00000000000000000E+00   0.00000000000000000E+00   0.00000000000000000E+00   0.00000000000000000E+00   0.00000000000000000E+00
             0.00000000000000000E+00   0.00000000000000000E+00   0.00000000000000000E+00   0.00000000000000000E+00   0.00000000000000000E+00
             0.00000000000000000E+00   0.00000000000000000E+00   0.00000000000000000E+00   0.00000000000000000E+00   0.00000000000000000E+00
             0.00000000000000000E+00   0.00000000000000000E+00   0.00000000000000000E+00   0.00000000000000000E+00   0.00000000000000000E+00
             0.00000000000000000E+00   0.00000000000000000E+00   0.00000000000000000E+00   0.00000000000000000E+00   0.00000000000000000E+00
             0.00000000000000000E+00   0.00000000000000000E+00   0.00000000000000000E+00   0.00000000000000000E+00   0.00000000000000000E+00
             0.00000000000000000E+00   0.00000000000000000E+00   0.00000000000000000E+00   0.00000000000000000E+00   0.00000000000000000E+00
             0.00000000000000000E+00   0.00000000000000000E+00   0.00000000000000000E+00   0.00000000000000000E+00   0.00000000000000000E+00
             0.00000000000000000E+00   0.00000000000000000E+00   0.00000000000000000E+00   0.00000000000000000E+00   0.00000000000000000E+00
             0.00000000000000000E+00   0.00000000000000000E+00   0.00000000000000000E+00   0.00000000000000000E+00   0.00000000000000000E+00
             0.00000000000000000E+00   0.00000000000000000E+00   0.00000000000000000E+00   0.00000000000000000E+00   0.00000000000000000E+00
             0.00000000000000000E+00   0.00000000000000000E+00   0.00000000000000000E+00   0.00000000000000000E+00   0.00000000000000000E+00
             0.00000000000000000E+00   0.00000000000000000E+00   0.00000000000000000E+00   0.00000000000000000E+00   0.00000000000000000E+00
             0.00000000000000000E+00   3.61809146926187351E+06   3.61804939034185093E+06   3.61800732184438407E+06   3.61796527419202821E+06
             3.61792325667599030E+06   3.61788127406207612E+06   3.61783932998474501E+06   3.61779742544623697E+06   3.61775555091992486E+06
             3.61771369424696313E+06   3.61767184150710143E+06   3.61762997173447255E+06   3.61758806220180308E+06   3.61754609744121553E+06
             3.61750409102241835E+06   3.61746206377451774E+06   0.00000000000000000E+00   0.00000000000000000E+00   0.00000000000000000E+00
             0.00000000000000000E+00   0.00000000000000000E+00   0.00000000000000000E+00   0.00000000000000000E+00   0.00000000000000000E+00
             0.00000000000000000E+00   0.00000000000000000E+00   0.00000000000000000E+00   0.00000000000000000E+00   0.00000000000000000E+00
             0.00000000000000000E+00   0.00000000000000000E+00   0.00000000000000000E+00   0.00000000000000000E+00   0.00000000000000000E+00
             0.00000000000000000E+00   0.00000000000000000E+00   0.00000000000000000E+00   0.00000000000000000E+00   0.00000000000000000E+00
             0.00000000000000000E+00   0.00000000000000000E+00   0.00000000000000000E+00   0.00000000000000000E+00   0.00000000000000000E+00
             0.00000000000000000E+00   0.00000000000000000E+00   0.00000000000000000E+00   0.00000000000000000E+00   0.00000000000000000E+00
             0.00000000000000000E+00   0.00000000000000000E+00   0.00000000000000000E+00
 ETA=  419   0.00000000000000000E+00   0.00000000000000000E+00   0.00000000000000000E+00   0.00000000000000000E+00   0.00000000000000000E+00
             0.00000000000000000E+00   0.00000000000000000E+00   0.00000000000000000E+00   0.00000000000000000E+00   0.00000000000000000E+00
             0.00000000000000000E+00   0.00000000000000000E+00   0.00000000000000000E+00   0.00000000000000000E+00   0.00000000000000000E+00
             0.00000000000000000E+00   0.00000000000000000E+00   0.00000000000000000E+00   0.00000000000000000E+00   0.00000000000000000E+00
             0.00000000000000000E+00   0.00000000000000000E+00   0.00000000000000000E+00   0.00000000000000000E+00   0.00000000000000000E+00
             0.00000000000000000E+00   0.00000000000000000E+00   0.00000000000000000E+00   0.00000000000000000E+00   0.00000000000000000E+00
             0.00000000000000000E+00   0.00000000000000000E+00   0.00000000000000000E+00   0.00000000000000000E+00   0.00000000000000000E+00
             0.00000000000000000E+00   0.00000000000000000E+00   0.00000000000000000E+00   0.00000000000000000E+00   0.00000000000000000E+00
             0.00000000000000000E+00   0.00000000000000000E+00   0.00000000000000000E+00   0.00000000000000000E+00   0.00000000000000000E+00
             0.00000000000000000E+00   0.00000000000000000E+00   0.00000000000000000E+00   0.00000000000000000E+00   0.00000000000000000E+00
             0.00000000000000000E+00   0.00000000000000000E+00   0.00000000000000000E+00   0.00000000000000000E+00   0.00000000000000000E+00
             0.00000000000000000E+00   0.00000000000000000E+00   0.00000000000000000E+00   0.00000000000000000E+00   0.00000000000000000E+00
             0.00000000000000000E+00   0.00000000000000000E+00   0.00000000000000000E+00   0.00000000000000000E+00   0.00000000000000000E+00
             0.00000000000000000E+00   0.00000000000000000E+00   0.00000000000000000E+00   0.00000000000000000E+00   0.00000000000000000E+00
             0.00000000000000000E+00   0.00000000000000000E+00   0.00000000000000000E+00   0.00000000000000000E+00   0.00000000000000000E+00
             0.00000000000000000E+00   0.00000000000000000E+00   0.00000000000000000E+00   0.00000000000000000E+00   0.00000000000000000E+00
             0.00000000000000000E+00   0.00000000000000000E+00   0.00000000000000000E+00   0.00000000000000000E+00   0.00000000000000000E+00
             0.00000000000000000E+00   0.00000000000000000E+00   0.00000000000000000E+00   0.00000000000000000E+00   0.00000000000000000E+00
             0.00000000000000000E+00   0.00000000000000000E+00   0.00000000000000000E+00   0.00000000000000000E+00   0.00000000000000000E+00
             0.00000000000000000E+00   0.00000000000000000E+00   0.00000000000000000E+00   0.00000000000000000E+00   0.00000000000000000E+00
             0.00000000000000000E+00   0.00000000000000000E+00   0.00000000000000000E+00   0.00000000000000000E+00   0.00000000000000000E+00
             0.00000000000000000E+00   0.00000000000000000E+00   0.00000000000000000E+00   0.00000000000000000E+00   0.00000000000000000E+00
             0.00000000000000000E+00   3.61810506324895564E+06   3.61806332863283297E+06   3.61802160796896135E+06   3.61797991520634713E+06
             3.61793826234231796E+06   3.61789665622237464E+06   3.61785510170860356E+06   3.61781359861865779E+06   3.61777213576427288E+06
             3.61773069686356140E+06   3.61768926496328926E+06   3.61764781035490101E+06   3.61760630263016792E+06   3.61756472225663718E+06
             3.61752308622736763E+06   3.61748142235878622E+06   0.00000000000000000E+00   0.00000000000000000E+00   0.00000000000000000E+00
             0.00000000000000000E+00   0.00000000000000000E+00   0.00000000000000000E+00   0.00000000000000000E+00   0.00000000000000000E+00
             0.00000000000000000E+00   0.00000000000000000E+00   0.00000000000000000E+00   0.00000000000000000E+00   0.00000000000000000E+00
             0.00000000000000000E+00   0.00000000000000000E+00   0.00000000000000000E+00   0.00000000000000000E+00   0.00000000000000000E+00
             0.00000000000000000E+00   0.00000000000000000E+00   0.00000000000000000E+00   0.00000000000000000E+00   0.00000000000000000E+00
             0.00000000000000000E+00   0.00000000000000000E+00   0.00000000000000000E+00   0.00000000000000000E+00   0.00000000000000000E+00
             0.00000000000000000E+00   0.00000000000000000E+00   0.00000000000000000E+00   0.00000000000000000E+00   0.00000000000000000E+00
             0.00000000000000000E+00   0.00000000000000000E+00   0.00000000000000000E+00
 ETA=  420   0.00000000000000000E+00   0.00000000000000000E+00   0.00000000000000000E+00   0.00000000000000000E+00   0.00000000000000000E+00
             0.00000000000000000E+00   0.00000000000000000E+00   0.00000000000000000E+00   0.00000000000000000E+00   0.00000000000000000E+00
             0.00000000000000000E+00   0.00000000000000000E+00   0.00000000000000000E+00   0.00000000000000000E+00   0.00000000000000000E+00
             0.00000000000000000E+00   0.00000000000000000E+00   0.00000000000000000E+00   0.00000000000000000E+00   0.00000000000000000E+00
             0.00000000000000000E+00   0.00000000000000000E+00   0.00000000000000000E+00   0.00000000000000000E+00   0.00000000000000000E+00
             0.00000000000000000E+00   0.00000000000000000E+00   0.00000000000000000E+00   0.00000000000000000E+00   0.00000000000000000E+00
             0.00000000000000000E+00   0.00000000000000000E+00   0.00000000000000000E+00   0.00000000000000000E+00   0.00000000000000000E+00
             0.00000000000000000E+00   0.00000000000000000E+00   0.00000000000000000E+00   0.00000000000000000E+00   0.00000000000000000E+00
             0.00000000000000000E+00   0.00000000000000000E+00   0.00000000000000000E+00   0.00000000000000000E+00   0.00000000000000000E+00
             0.00000000000000000E+00   0.00000000000000000E+00   0.00000000000000000E+00   0.00000000000000000E+00   0.00000000000000000E+00
             0.00000000000000000E+00   0.00000000000000000E+00   0.00000000000000000E+00   0.00000000000000000E+00   0.00000000000000000E+00
             0.00000000000000000E+00   0.00000000000000000E+00   0.00000000000000000E+00   0.00000000000000000E+00   0.00000000000000000E+00
             0.00000000000000000E+00   0.00000000000000000E+00   0.00000000000000000E+00   0.00000000000000000E+00   0.00000000000000000E+00
             0.00000000000000000E+00   0.00000000000000000E+00   0.00000000000000000E+00   0.00000000000000000E+00   0.00000000000000000E+00
             0.00000000000000000E+00   0.00000000000000000E+00   0.00000000000000000E+00   0.00000000000000000E+00   0.00000000000000000E+00
             0.00000000000000000E+00   0.00000000000000000E+00   0.00000000000000000E+00   0.00000000000000000E+00   0.00000000000000000E+00
             0.00000000000000000E+00   0.00000000000000000E+00   0.00000000000000000E+00   0.00000000000000000E+00   0.00000000000000000E+00
             0.00000000000000000E+00   0.00000000000000000E+00   0.00000000000000000E+00   0.00000000000000000E+00   0.00000000000000000E+00
             0.00000000000000000E+00   0.00000000000000000E+00   0.00000000000000000E+00   0.00000000000000000E+00   0.00000000000000000E+00
             0.00000000000000000E+00   0.00000000000000000E+00   0.00000000000000000E+00   0.00000000000000000E+00   0.00000000000000000E+00
             0.00000000000000000E+00   0.00000000000000000E+00   0.00000000000000000E+00   0.00000000000000000E+00   0.00000000000000000E+00
             0.00000000000000000E+00   0.00000000000000000E+00   0.00000000000000000E+00   0.00000000000000000E+00   0.00000000000000000E+00
             0.00000000000000000E+00   3.61811865770121571E+06   3.61807726758104563E+06   3.61803589488726528E+06   3.61799455704275379E+06
             3.61795326913841441E+06   3.61791203961276682E+06   3.61787087453772174E+06   3.61782977424034476E+06   3.61778872418583930E+06
             3.61774770403655153E+06   3.61770669181353506E+06   3.61766565121246548E+06   3.61762454424027354E+06   3.61758334603958763E+06
             3.61754207830231125E+06   3.61750077578432951E+06   0.00000000000000000E+00   0.00000000000000000E+00   0.00000000000000000E+00
             0.00000000000000000E+00   0.00000000000000000E+00   0.00000000000000000E+00   0.00000000000000000E+00   0.00000000000000000E+00
             0.00000000000000000E+00   0.00000000000000000E+00   0.00000000000000000E+00   0.00000000000000000E+00   0.00000000000000000E+00
             0.00000000000000000E+00   0.00000000000000000E+00   0.00000000000000000E+00   0.00000000000000000E+00   0.00000000000000000E+00
             0.00000000000000000E+00   0.00000000000000000E+00   0.00000000000000000E+00   0.00000000000000000E+00   0.00000000000000000E+00
             0.00000000000000000E+00   0.00000000000000000E+00   0.00000000000000000E+00   0.00000000000000000E+00   0.00000000000000000E+00
             0.00000000000000000E+00   0.00000000000000000E+00   0.00000000000000000E+00   0.00000000000000000E+00   0.00000000000000000E+00
             0.00000000000000000E+00   0.00000000000000000E+00   0.00000000000000000E+00
 ETA=  421   0.00000000000000000E+00   0.00000000000000000E+00   0.00000000000000000E+00   0.00000000000000000E+00   0.00000000000000000E+00
             0.00000000000000000E+00   0.00000000000000000E+00   0.00000000000000000E+00   0.00000000000000000E+00   0.00000000000000000E+00
             0.00000000000000000E+00   0.00000000000000000E+00   0.00000000000000000E+00   0.00000000000000000E+00   0.00000000000000000E+00
             0.00000000000000000E+00   0.00000000000000000E+00   0.00000000000000000E+00   0.00000000000000000E+00   0.00000000000000000E+00
             0.00000000000000000E+00   0.00000000000000000E+00   0.00000000000000000E+00   0.00000000000000000E+00   0.00000000000000000E+00
             0.00000000000000000E+00   0.00000000000000000E+00   0.00000000000000000E+00   0.00000000000000000E+00   0.00000000000000000E+00
             0.00000000000000000E+00   0.00000000000000000E+00   0.00000000000000000E+00   0.00000000000000000E+00   0.00000000000000000E+00
             0.00000000000000000E+00   0.00000000000000000E+00   0.00000000000000000E+00   0.00000000000000000E+00   0.00000000000000000E+00
             0.00000000000000000E+00   0.00000000000000000E+00   0.00000000000000000E+00   0.00000000000000000E+00   0.00000000000000000E+00
             0.00000000000000000E+00   0.00000000000000000E+00   0.00000000000000000E+00   0.00000000000000000E+00   0.00000000000000000E+00
             0.00000000000000000E+00   0.00000000000000000E+00   0.00000000000000000E+00   0.00000000000000000E+00   0.00000000000000000E+00
             0.00000000000000000E+00   0.00000000000000000E+00   0.00000000000000000E+00   0.00000000000000000E+00   0.00000000000000000E+00
             0.00000000000000000E+00   0.00000000000000000E+00   0.00000000000000000E+00   0.00000000000000000E+00   0.00000000000000000E+00
             0.00000000000000000E+00   0.00000000000000000E+00   0.00000000000000000E+00   0.00000000000000000E+00   0.00000000000000000E+00
             0.00000000000000000E+00   0.00000000000000000E+00   0.00000000000000000E+00   0.00000000000000000E+00   0.00000000000000000E+00
             0.00000000000000000E+00   0.00000000000000000E+00   0.00000000000000000E+00   0.00000000000000000E+00   0.00000000000000000E+00
             0.00000000000000000E+00   0.00000000000000000E+00   0.00000000000000000E+00   0.00000000000000000E+00   0.00000000000000000E+00
             0.00000000000000000E+00   0.00000000000000000E+00   0.00000000000000000E+00   0.00000000000000000E+00   0.00000000000000000E+00
             0.00000000000000000E+00   0.00000000000000000E+00   0.00000000000000000E+00   0.00000000000000000E+00   0.00000000000000000E+00
             0.00000000000000000E+00   0.00000000000000000E+00   0.00000000000000000E+00   0.00000000000000000E+00   0.00000000000000000E+00
             0.00000000000000000E+00   0.00000000000000000E+00   0.00000000000000000E+00   0.00000000000000000E+00   0.00000000000000000E+00
             0.00000000000000000E+00   0.00000000000000000E+00   0.00000000000000000E+00   0.00000000000000000E+00   0.00000000000000000E+00
             0.00000000000000000E+00   3.61813225238606380E+06   3.61809120689396234E+06   3.61805018224697234E+06   3.61800919929020479E+06
             3.61796827660607127E+06   3.61792742372618802E+06   3.61788664791946998E+06   3.61784595119039854E+06   3.61780531448571710E+06
             3.61776471348773781E+06   3.61772412035595905E+06   3.61768349315864453E+06   3.61764278644124931E+06   3.61760196926801885E+06
             3.61756106877836911E+06   3.61752012663051020E+06   0.00000000000000000E+00   0.00000000000000000E+00   0.00000000000000000E+00
             0.00000000000000000E+00   0.00000000000000000E+00   0.00000000000000000E+00   0.00000000000000000E+00   0.00000000000000000E+00
             0.00000000000000000E+00   0.00000000000000000E+00   0.00000000000000000E+00   0.00000000000000000E+00   0.00000000000000000E+00
             0.00000000000000000E+00   0.00000000000000000E+00   0.00000000000000000E+00   0.00000000000000000E+00   0.00000000000000000E+00
             0.00000000000000000E+00   0.00000000000000000E+00   0.00000000000000000E+00   0.00000000000000000E+00   0.00000000000000000E+00
             0.00000000000000000E+00   0.00000000000000000E+00   0.00000000000000000E+00   0.00000000000000000E+00   0.00000000000000000E+00
             0.00000000000000000E+00   0.00000000000000000E+00   0.00000000000000000E+00   0.00000000000000000E+00   0.00000000000000000E+00
             0.00000000000000000E+00   0.00000000000000000E+00   0.00000000000000000E+00
