*
* Deltares, Delft3D-RGFGRID Version 4.18.00.16842, May 25 2011, 10:45:12
* File creation date: 2015-05-13, 13:11:48
*
Coordinate System = Cartesian
     208     325
 0 0 0
 ETA=    1   4.73304632969339786E+05   4.73315811079506937E+05   4.73326997672436060E+05   4.73338201230889186E+05   4.73349428099968180E+05
             4.73360676074134943E+05   4.73371940810191154E+05   4.73383218537722831E+05   4.73394507777453226E+05   4.73405807622889697E+05
             4.73417117201652611E+05   4.73428435777813720E+05   4.73439762649557553E+05   4.73451097156192816E+05   4.73462438801524404E+05
             4.73473787130481272E+05   4.73485141676973260E+05   4.73496501930833503E+05   4.73507867370876076E+05   4.73519237583843700E+05
             4.73530612588194490E+05   4.73541992510315205E+05   4.73553377475801681E+05   4.73564767607084999E+05   4.73576163025805203E+05
             4.73587563853814325E+05   4.73598970213812194E+05   4.73610382228710863E+05   4.73621800182980369E+05   4.73633225007323781E+05
             4.73644657794002385E+05   4.73656099635292660E+05   4.73667551623531966E+05   4.73679014851072745E+05   4.73690490410263650E+05
             4.73701979393436864E+05   4.73713482892920263E+05   4.73725001971007558E+05   4.73736537569853303E+05   4.73748090601577540E+05
             4.73759661978300137E+05   4.73771252612139448E+05   4.73782863415213942E+05   4.73794495299641800E+05   4.73806149177541782E+05
             4.73817825961032591E+05   4.73829526283073123E+05   4.73841249659982510E+05   4.73852995328920020E+05   4.73864762527045037E+05
             4.73876550491516711E+05   4.73888358459494426E+05   4.73900185668137565E+05   4.73912031354605395E+05   4.73923894756057183E+05
             4.73935775123824133E+05   4.73947671765924664E+05   4.73959584004549193E+05   4.73971511161888076E+05   4.73983452560131554E+05
             4.73995407521470159E+05   4.74007375368094072E+05   4.74019355422193767E+05   4.74031347005959658E+05   4.74043349427441717E+05
             4.74055361938129354E+05   4.74067383775371767E+05   4.74079414176518098E+05   4.74091452378917544E+05   4.74103497619919246E+05
             4.74115549136872403E+05   4.74127606167126272E+05   4.74139667948029935E+05   4.74151733817291504E+05   4.74163803514055675E+05
             4.74175876877825707E+05   4.74187953748105268E+05   4.74200033964397735E+05   4.74212117366206774E+05   4.74224203793035820E+05
             4.74236293084388366E+05   4.74248385079768021E+05   4.74260479620000347E+05   4.74272576551199949E+05   4.74284675720803498E+05
             4.74296776976247726E+05   4.74308880164969480E+05   4.74320985134405200E+05   4.74333091731991852E+05   4.74345199805166048E+05
             4.74357309201364522E+05   4.74369419723763887E+05   4.74381530998500180E+05   4.74393642607449205E+05   4.74405754132486996E+05
             4.74417865155489359E+05   4.74429975258332270E+05   4.74442084022891591E+05   4.74454191031043127E+05   4.74466295864662912E+05
             4.74478398206022161E+05   4.74490498138973606E+05   4.74502595847765158E+05   4.74514691516645020E+05   4.74526785329861159E+05
             4.74538877471661719E+05   4.74550968126294727E+05   4.74563057478008210E+05   4.74575145711050311E+05   4.74587232985056180E+05
             4.74599319361209869E+05   4.74611404876082670E+05   4.74623489566245873E+05   4.74635573468270595E+05   4.74647656618728244E+05
             4.74659739054189937E+05   4.74671820811226964E+05   4.74683901926410617E+05   4.74695982366638491E+05   4.74708061820114031E+05
             4.74720139905367279E+05   4.74732216240928043E+05   4.74744290445326187E+05   4.74756362137091695E+05   4.74768430934754375E+05
             4.74780496456844150E+05   4.74792558321890945E+05   4.74804616315253719E+05   4.74816670889608155E+05   4.74828722664458852E+05
             4.74840772259310586E+05   4.74852820293667959E+05   4.74864867387035745E+05   4.74876914158918662E+05   4.74888961228821368E+05
             4.74901009216248523E+05   4.74913058701004775E+05   4.74925110104094259E+05   4.74937163806820929E+05   4.74949220190488733E+05
             4.74961279636401800E+05   4.74973342525863962E+05   4.74985409240179346E+05   4.74997480160651845E+05   4.75009555668585468E+05
             4.75021636016710836E+05   4.75033720943465130E+05   4.75045810058711912E+05   4.75057902972315089E+05   4.75069999294138106E+05
             4.75082098634044989E+05   4.75094200601899240E+05   4.75106304807564709E+05   4.75118410860904958E+05   4.75130518589218962E+05
             4.75142628689545614E+05   4.75154742076359340E+05   4.75166859664134157E+05   4.75178982367344433E+05   4.75191111100464128E+05
             4.75203246777967550E+05   4.75215390314328892E+05   4.75227542624022404E+05   4.75239704516279278E+05   4.75251876379359630E+05
             4.75264058496280399E+05   4.75276251150058757E+05   4.75288454623711936E+05   4.75300669200256933E+05   4.75312895162710862E+05
             4.75325132794090896E+05   4.75337382377414207E+05   4.75349644093571173E+05   4.75361917714944750E+05   4.75374202911791159E+05
             4.75386499354366737E+05   4.75398806712928636E+05   4.75411124657734355E+05   4.75423452859040408E+05   4.75435790987100510E+05
             4.75448138712167391E+05   4.75460495801340207E+05   4.75472862409102847E+05   4.75485238786785572E+05   4.75497625185708050E+05
             4.75510021857147804E+05   4.75522429052371474E+05   4.75534847022685455E+05   4.75547276019553596E+05   4.75559716294479382E+05
             4.75572168019419129E+05   4.75584631048141222E+05   4.75597105154866993E+05   4.75609590114366903E+05   4.75622085703607707E+05
             4.75634591700105113E+05   4.75647107879325922E+05   4.75659634008539957E+05   4.75672169852967956E+05   4.75684715024918667E+05
             4.75697268525052234E+05   4.75709829201117100E+05   4.75722395872319932E+05   4.75734967243702326E+05   4.75747541991764389E+05
             4.75760118899523804E+05   4.75772697176069836E+05   4.75785276137009088E+05
 ETA=    2   4.73336289050172491E+05   4.73347469917022390E+05   4.73358659312480188E+05   4.73369865765093709E+05   4.73381095643033041E+05
             4.73392346717895416E+05   4.73403614601373032E+05   4.73414895517030032E+05   4.73426188055441075E+05   4.73437491419972561E+05
             4.73448804801559018E+05   4.73460127277459716E+05   4.73471457913709048E+05   4.73482795849096379E+05   4.73494140424983809E+05
             4.73505491056865430E+05   4.73516847163654980E+05   4.73528208208283468E+05   4.73539573658527283E+05   4.73550943283954170E+05
             4.73562316918281722E+05   4.73573694698400854E+05   4.73585076774182788E+05   4.73596463361112343E+05   4.73607854689076252E+05
             4.73619251039576193E+05   4.73630652785797312E+05   4.73642060353841225E+05   4.73653474257471040E+05   4.73664895335789246E+05
             4.73676324516651919E+05   4.73687762792018999E+05   4.73699211240527395E+05   4.73710671005649026E+05   4.73722143250189547E+05
             4.73733629115335469E+05   4.73745129761987715E+05   4.73756646296889463E+05   4.73768179663387826E+05   4.73779730750849762E+05
             4.73791300461368577E+05   4.73802889747604320E+05   4.73814499574985064E+05   4.73826130902334757E+05   4.73837784683035163E+05
             4.73849461863892560E+05   4.73861163154485519E+05   4.73872888024553016E+05   4.73884635706521163E+05   4.73896405428637343E+05
             4.73908196439227846E+05   4.73920007982469979E+05   4.73931839290019416E+05   4.73943689573483774E+05   4.73955558031982917E+05
             4.73967443885494838E+05   4.73979346458372020E+05   4.73991265095928509E+05   4.74003199132823676E+05   4.74015147884203878E+05
             4.74027110654779011E+05   4.74039086744265456E+05   4.74051075456440798E+05   4.74063076090457034E+05   4.74075087933953211E+05
             4.74087110248399898E+05   4.74099142284340342E+05   4.74111183287150343E+05   4.74123232482370804E+05   4.74135289091264538E+05
             4.74147352347789565E+05   4.74159421514678863E+05   4.74171495868657948E+05   4.74183574778117414E+05   4.74195657947431435E+05
             4.74207745174239855E+05   4.74219836268414918E+05   4.74231931067481230E+05   4.74244029422722873E+05   4.74256131181118137E+05
             4.74268236174377380E+05   4.74280344231208961E+05   4.74292455184670514E+05   4.74304568881293002E+05   4.74316685173057544E+05
             4.74328803906146204E+05   4.74340924933442730E+05   4.74353048102959816E+05   4.74365173252476612E+05   4.74377300219563826E+05
             4.74389428832338017E+05   4.74401558891469496E+05   4.74413690048644552E+05   4.74425821928789199E+05   4.74437954150368168E+05
             4.74450086331803584E+05   4.74462218085797329E+05   4.74474349016719323E+05   4.74486478710261930E+05   4.74498606744637247E+05
             4.74510732750564930E+05   4.74522856866231887E+05   4.74534979283254594E+05   4.74547100184756157E+05   4.74559219738735061E+05
             4.74571338105135539E+05   4.74583455430446542E+05   4.74595571861266333E+05   4.74607687530843890E+05   4.74619802575686481E+05
             4.74631917050625198E+05   4.74644031013677188E+05   4.74656144505155156E+05   4.74668257568597444E+05   4.74680370229820721E+05
             4.74692482497668418E+05   4.74704594402896182E+05   4.74716705959397776E+05   4.74728817154690332E+05   4.74740927684848721E+05
             4.74753037219774793E+05   4.74765145419096458E+05   4.74777251971317164E+05   4.74789356555021892E+05   4.74801458815554448E+05
             4.74813558346119593E+05   4.74825654707054782E+05   4.74837747549067019E+05   4.74849837457086309E+05   4.74861925107125775E+05
             4.74874011141613359E+05   4.74886096149061748E+05   4.74898180685754574E+05   4.74910265287891962E+05   4.74922350543277280E+05
             4.74934437022427854E+05   4.74946525313605729E+05   4.74958615776529768E+05   4.74970708793095080E+05   4.74982804716333165E+05
             4.74994903932673391E+05   4.75007006806036807E+05   4.75019113670757506E+05   4.75031224924530659E+05   4.75043340943770250E+05
             4.75055462068184861E+05   4.75067587985955179E+05   4.75079718358437880E+05   4.75091852827661671E+05   4.75103991159499798E+05
             4.75116133111488190E+05   4.75128278338465025E+05   4.75140426345626009E+05   4.75152576546854980E+05   4.75164728446046647E+05
             4.75176883056717925E+05   4.75189041494877602E+05   4.75201204774218495E+05   4.75213373761574854E+05   4.75225549236048188E+05
             4.75237731942997023E+05   4.75249922775365820E+05   4.75262122609960905E+05   4.75274332333513419E+05   4.75286552192482457E+05
             4.75298782463125361E+05   4.75311023369186092E+05   4.75323275231487642E+05   4.75335538339856779E+05   4.75347812924658880E+05
             4.75360099340501998E+05   4.75372397904856596E+05   4.75384708973599540E+05   4.75397032192908053E+05   4.75409367269613664E+05
             4.75421713865075435E+05   4.75434071790764690E+05   4.75446440834543726E+05   4.75458820705247635E+05   4.75471211081920192E+05
             4.75483611585052509E+05   4.75496021804674063E+05   4.75508442065221432E+05   4.75520872680288856E+05   4.75533313887279073E+05
             4.75545765919066907E+05   4.75558228951398283E+05   4.75570703087331378E+05   4.75583188556752226E+05   4.75595685535822413E+05
             4.75608194314761844E+05   4.75620714554521081E+05   4.75633246047744702E+05   4.75645788493359694E+05   4.75658341756881389E+05
             4.75670905626903870E+05   4.75683479772820021E+05   4.75696063992109965E+05   4.75708657978040341E+05   4.75721261513064848E+05
             4.75733873490192695E+05   4.75746492903296719E+05   4.75759118638392014E+05   4.75771749666476680E+05   4.75784384860468970E+05
             4.75797023044081521E+05   4.75809663248482044E+05   4.75822304461314518E+05
 ETA=    3   4.73368007810851210E+05   4.73379191428594699E+05   4.73390383620813605E+05   4.73401592961889110E+05   4.73412825848675391E+05
             4.73424080024435651E+05   4.73435351055391016E+05   4.73446635148803238E+05   4.73457930975810683E+05   4.73469237849541474E+05
             4.73480555016097671E+05   4.73491881374188291E+05   4.73503215756742633E+05   4.73514557090243208E+05   4.73525904565035948E+05
             4.73537257466513722E+05   4.73548615101886156E+05   4.73559976904103300E+05   4.73571342329548614E+05   4.73582711187322508E+05
             4.73594083270192263E+05   4.73605458725163771E+05   4.73616837727658567E+05   4.73628220585679577E+05   4.73639607637142239E+05
             4.73650999308570928E+05   4.73662396239448048E+05   4.73673799159151386E+05   4.73685208807484945E+05   4.73696625935811957E+05
             4.73708051306914189E+05   4.73719485790586972E+05   4.73730930473629269E+05   4.73742386550472525E+05   4.73753855241813406E+05
             4.73765337750557694E+05   4.73776835306157183E+05   4.73788349066385825E+05   4.73799879969323461E+05   4.73811428881476750E+05
             4.73822996694767207E+05   4.73834584402583656E+05   4.73846193023722910E+05   4.73857823566389212E+05   4.73869477022691979E+05
             4.73881154374169011E+05   4.73892856370671885E+05   4.73904582471670466E+05   4.73916331904857128E+05   4.73928103894157743E+05
             4.73939897694503597E+05   4.73951712557106803E+05   4.73963547711853171E+05   4.73975402341033507E+05   4.73987275605651259E+05
             4.73999166696840606E+05   4.74011074952805182E+05   4.74022999741982028E+05   4.74034940414300479E+05   4.74046896275169507E+05
             4.74058866611699632E+05   4.74070850703906792E+05   4.74082847834465269E+05   4.74094857279310178E+05   4.74106878307827457E+05
             4.74118910189513350E+05   4.74130952187887975E+05   4.74143003556041396E+05   4.74155063508323103E+05   4.74167131249517959E+05
             4.74179206006857334E+05   4.74191287072281819E+05   4.74203373761422990E+05   4.74215465468818438E+05   4.74227561869192170E+05
             4.74239662717719038E+05   4.74251767790973885E+05   4.74263876928683545E+05   4.74275989993483527E+05   4.74288106838899606E+05
             4.74300227290281269E+05   4.74312351165203901E+05   4.74324478287008242E+05   4.74336608504995238E+05   4.74348741675409547E+05
             4.74360877645155706E+05   4.74373016270927445E+05   4.74385157401119824E+05   4.74397300866850826E+05   4.74409446493125986E+05
             4.74421594088611717E+05   4.74433743444054795E+05   4.74445894244384544E+05   4.74458046157484350E+05   4.74470198838726268E+05
             4.74482351943099638E+05   4.74494505114009895E+05   4.74506657976773160E+05   4.74518810122776311E+05   4.74530961126334674E+05
             4.74543110599863867E+05   4.74555258703048632E+05   4.74567405634842347E+05   4.74579551575029793E+05   4.74591696677758708E+05
             4.74603841078778263E+05   4.74615984888230159E+05   4.74628128213674296E+05   4.74640271137599542E+05   4.74652413755412039E+05
             4.74664556133523525E+05   4.74676698351703817E+05   4.74688840456310951E+05   4.74700982495532779E+05   4.74713124484745669E+05
             4.74725266408380470E+05   4.74737408288100210E+05   4.74749550115447550E+05   4.74761691866345063E+05   4.74773833276990161E+05
             4.74785974068944925E+05   4.74798113941639720E+05   4.74810252654956654E+05   4.74822389947892865E+05   4.74834525491536187E+05
             4.74846658854881825E+05   4.74858789540360449E+05   4.74870917123118415E+05   4.74883042261484079E+05   4.74895165688377630E+05
             4.74907288065208704E+05   4.74919409953828319E+05   4.74931531847284175E+05   4.74943654199083510E+05   4.74955777565550117E+05
             4.74967902467728418E+05   4.74980029447083129E+05   4.74992158858644718E+05   4.75004291083797521E+05   4.75016426446047903E+05
             4.75028565340197296E+05   4.75040708111166430E+05   4.75052855047039571E+05   4.75065006563837524E+05   4.75077163030818105E+05
             4.75089324787315971E+05   4.75101491561742674E+05   4.75113663064341992E+05   4.75125838968039199E+05   4.75138019199556031E+05
             4.75150203661480919E+05   4.75162392057670280E+05   4.75174583788132295E+05   4.75186778067915118E+05   4.75198974190145324E+05
             4.75211173376209277E+05   4.75223376940406917E+05   4.75235585995481117E+05   4.75247801365447813E+05   4.75260023689721129E+05
             4.75272253544300445E+05   4.75284491806447390E+05   4.75296739309919649E+05   4.75308996895937657E+05   4.75321264798550052E+05
             4.75333543281191145E+05   4.75345832506437495E+05   4.75358132841912680E+05   4.75370444577920891E+05   4.75382767895018158E+05
             4.75395103223920683E+05   4.75407450909928128E+05   4.75419811331376783E+05   4.75432184167953732E+05   4.75444569156634039E+05
             4.75456965944877476E+05   4.75469374497586919E+05   4.75481794714267657E+05   4.75494226329734665E+05   4.75506669051161618E+05
             4.75519122443894623E+05   4.75531585977476963E+05   4.75544060096238041E+05   4.75556545170671074E+05   4.75569041409210186E+05
             4.75581549047610199E+05   4.75594068180850882E+05   4.75606598761028727E+05   4.75619141005462268E+05   4.75631695009628893E+05
             4.75644260988854279E+05   4.75656838610153703E+05   4.75669427679670334E+05   4.75682027828777966E+05   4.75694639009130187E+05
             4.75707261016003438E+05   4.75719893426980474E+05   4.75732536060631275E+05   4.75745188534195593E+05   4.75757850581185718E+05
             4.75770521209929429E+05   4.75783199557706364E+05   4.75795884577869379E+05   4.75808575510725554E+05   4.75821271423701954E+05
             4.75833971166334231E+05   4.75846673608620826E+05   4.75859377409730398E+05
 ETA=    4   4.73399851931221725E+05   4.73411038288328447E+05   4.73422233265766292E+05   4.73433445483866672E+05   4.73444681379613408E+05
             4.73455938656602229E+05   4.73467212835081329E+05   4.73478500085748557E+05   4.73489799181100330E+05   4.73501109544082603E+05
             4.73512430460206699E+05   4.73523760665246285E+05   4.73535098757540458E+05   4.73546443428070925E+05   4.73557793738389504E+05
             4.73569148842690513E+05   4.73580507943534292E+05   4.73591870436944417E+05   4.73603235767310078E+05   4.73614603497733595E+05
             4.73625973666168517E+05   4.73637346429281170E+05   4.73648721991939819E+05   4.73660100751819788E+05   4.73671483154798218E+05
             4.73682869744667900E+05   4.73694261456884909E+05   4.73705659324821027E+05   4.73717064309097826E+05   4.73728477079335018E+05
             4.73739898232402047E+05   4.73751328473261558E+05   4.73762768939248403E+05   4.73774220875790750E+05   4.73785685537112993E+05
             4.73797164212624426E+05   4.73808658200530917E+05   4.73820168723265349E+05   4.73831696700169647E+05   4.73843242974813329E+05
             4.73854808428895951E+05   4.73866394096639007E+05   4.73878001050394261E+05   4.73889630353181274E+05   4.73901283030690043E+05
             4.73912960099278484E+05   4.73924662276399205E+05   4.73936389083884831E+05   4.73948139744662680E+05   4.73959913487550686E+05
             4.73971709564928547E+05   4.73983527235066402E+05   4.73995365733644052E+05   4.74007224205980659E+05   4.74019101774805109E+05
             4.74030997607656929E+05   4.74042911051318923E+05   4.74054841497384128E+05   4.74066788317072380E+05   4.74078750800108537E+05
             4.74090728215843788E+05   4.74102719830818940E+05   4.74114724900333153E+05   4.74126742676874914E+05   4.74138772416897526E+05
             4.74150813392712036E+05   4.74162864880594017E+05   4.74174926142085402E+05   4.74186996379792399E+05   4.74199074781587813E+05
             4.74211160563056415E+05   4.74223253050632426E+05   4.74235351598462439E+05   4.74247455620336870E+05   4.74259564768622105E+05
             4.74271678755328350E+05   4.74283797319379111E+05   4.74295920307350927E+05   4.74308047592733346E+05   4.74320179037759313E+05
             4.74332314459634305E+05   4.74344453664306959E+05   4.74356596466739487E+05   4.74368742717946880E+05   4.74380892277957522E+05
             4.74393045004851592E+05   4.74405200748916308E+05   4.74417359358490794E+05   4.74429520671981445E+05   4.74441684488065017E+05
             4.74453850595485768E+05   4.74466018769938906E+05   4.74478188734923722E+05   4.74490360200890107E+05   4.74502532872159965E+05
             4.74514706428542209E+05   4.74526880543717532E+05   4.74539054874057998E+05   4.74551229006701789E+05   4.74563402511478402E+05
             4.74575575064207253E+05   4.74587746764667332E+05   4.74599917818626971E+05   4.74612088416061248E+05   4.74624258683769847E+05
             4.74636428732758912E+05   4.74648598660731048E+05   4.74660768512175709E+05   4.74672938318279281E+05   4.74685108121864614E+05
             4.74697278012301074E+05   4.74709448090594786E+05   4.74721618441628118E+05   4.74733789085787488E+05   4.74745960027335619E+05
             4.74758131264560681E+05   4.74770302771851595E+05   4.74782474517622613E+05   4.74794646437609626E+05   4.74806818336834433E+05
             4.74818989987640409E+05   4.74831161166728823E+05   4.74843331668233324E+05   4.74855501290645450E+05   4.74867669773260830E+05
             4.74879836618590576E+05   4.74892001269950008E+05   4.74904163394855801E+05   4.74916323557630763E+05   4.74928482546799467E+05
             4.74940641090757446E+05   4.74952799677385367E+05   4.74964958734435204E+05   4.74977118696534133E+05   4.74989280025811458E+05
             4.75001443191271625E+05   4.75013608646680834E+05   4.75025776784851274E+05   4.75037947983356717E+05   4.75050122610496532E+05
             4.75062300997471903E+05   4.75074483466209553E+05   4.75086670344537473E+05   4.75098861983887386E+05   4.75111058741592045E+05
             4.75123260874408181E+05   4.75135468236786663E+05   4.75147680582602450E+05   4.75159897713772836E+05   4.75172119624386018E+05
             4.75184346356572758E+05   4.75196577780438471E+05   4.75208813077986706E+05   4.75221051259196014E+05   4.75233291750170058E+05
             4.75245535641513998E+05   4.75257784439958516E+05   4.75270039483136847E+05   4.75282301432292501E+05   4.75294570779571717E+05
             4.75306848065502301E+05   4.75319134024139144E+05   4.75331429437918938E+05   4.75343734999175183E+05   4.75356051039829093E+05
             4.75368377801698924E+05   4.75380715533274284E+05   4.75393064509730262E+05   4.75405425012913707E+05   4.75417797338336415E+05
             4.75430181836171716E+05   4.75442578870258003E+05   4.75454988703457580E+05   4.75467411194727931E+05   4.75479846102050447E+05
             4.75492293224135065E+05   4.75504752522607159E+05   4.75517223999820766E+05   4.75529707574692846E+05   4.75542202832392242E+05
             4.75554709274650842E+05   4.75567226556115493E+05   4.75579754943094507E+05   4.75592294854811160E+05   4.75604846641619748E+05
             4.75617410378398199E+05   4.75629986071155290E+05   4.75642573726009985E+05   4.75655173349522229E+05   4.75667784948362270E+05
             4.75680408496835153E+05   4.75693043839785154E+05   4.75705690789691871E+05   4.75718349156210723E+05   4.75731018737702689E+05
             4.75743699329704861E+05   4.75756390684360755E+05   4.75769092380239628E+05   4.75781803952516580E+05   4.75794524893296184E+05
             4.75807254522399395E+05   4.75819992116575944E+05   4.75832736949573853E+05   4.75845488283133192E+05   4.75858245375991915E+05
             4.75871007331651810E+05   4.75883772632669949E+05   4.75896539606367238E+05
 ETA=    5   4.73431872673995560E+05   4.73443061764753715E+05   4.73454259518984763E+05   4.73465474599683366E+05   4.73476713494933967E+05
             4.73487973869915411E+05   4.73499251215414493E+05   4.73510541648194194E+05   4.73521844013849564E+05   4.73533157784823154E+05
             4.73544482465645997E+05   4.73555816437481320E+05   4.73567158114521531E+05   4.73578505975318549E+05   4.73589859015190159E+05
             4.73601216295191145E+05   4.73612576915691025E+05   4.73623940067367628E+05   4.73635304981830821E+05   4.73646671312802879E+05
             4.73658039003937680E+05   4.73669408422863286E+05   4.73680779965809546E+05   4.73692154130984971E+05   4.73703531446878100E+05
             4.73714912506497232E+05   4.73726298490073590E+05   4.73737690643747861E+05   4.73749090477886435E+05   4.73760498261203582E+05
             4.73771914527167974E+05   4.73783339852015022E+05   4.73794775469600107E+05   4.73806222657431557E+05   4.73817682657215337E+05
             4.73829156845340622E+05   4.73840646562888229E+05   4.73852153218675056E+05   4.73863677595749206E+05   4.73875220544823969E+05
             4.73886782961334044E+05   4.73898365926564496E+05   4.73909970566641481E+05   4.73921597999575082E+05   4.73933249254073016E+05
             4.73944925350826234E+05   4.73956627000722568E+05   4.73968353765171778E+05   4.73980104895960947E+05   4.73991879661147483E+05
             4.74003677294990688E+05   4.74015497048049932E+05   4.74027338160761108E+05   4.74039199753421824E+05   4.74051080936164246E+05
             4.74062980788675311E+05   4.74074898732582224E+05   4.74086834159147111E+05   4.74098786447125429E+05   4.74110754864712304E+05
             4.74122738667596132E+05   4.74134737118401681E+05   4.74146749446860282E+05   4.74158774889726075E+05   4.74170812666558544E+05
             4.74182862073473574E+05   4.74194922389700310E+05   4.74206992876760487E+05   4.74219072732583329E+05   4.74231161137865274E+05
             4.74243257292084920E+05   4.74255360542420705E+05   4.74267470255623106E+05   4.74279585931843088E+05   4.74291707132986456E+05
             4.74303833555182384E+05   4.74315964911471703E+05   4.74328101061608293E+05   4.74340241883164679E+05   4.74352387238083174E+05
             4.74364536940162943E+05   4.74376690788266540E+05   4.74388848579593468E+05   4.74401010177162418E+05   4.74413175442913547E+05
             4.74425344247641449E+05   4.74437516431210272E+05   4.74449691842568107E+05   4.74461870332150662E+05   4.74474051670423069E+05
             4.74486235629422532E+05   4.74498421941307548E+05   4.74510610398523510E+05   4.74522800753756892E+05   4.74534992758399632E+05
             4.74547186106933746E+05   4.74559380492414522E+05   4.74571575594545226E+05   4.74583771041235188E+05   4.74595966446911683E+05
             4.74608161467819067E+05   4.74620356225969037E+05   4.74632550884971919E+05   4.74644745601370872E+05   4.74656940482416714E+05
             4.74669135627789772E+05   4.74681331132666091E+05   4.74693526981233736E+05   4.74705723152416584E+05   4.74717919587890967E+05
             4.74730116444263957E+05   4.74742313840199611E+05   4.74754511903147097E+05   4.74766710624972184E+05   4.74778910005443147E+05
             4.74791110060909239E+05   4.74803310703829862E+05   4.74815511862568499E+05   4.74827713407799660E+05   4.74839915242658462E+05
             4.74852117212197627E+05   4.74864319181562343E+05   4.74876520958459238E+05   4.74888722370229778E+05   4.74900923206318403E+05
             4.74913123000768421E+05   4.74925321249409055E+05   4.74937517497510184E+05   4.74949712426950806E+05   4.74961906769170542E+05
             4.74974101223056146E+05   4.74986296225957281E+05   4.74998492183492344E+05   4.75010689529258932E+05   4.75022888609254675E+05
             4.75035089799712121E+05   4.75047293449994060E+05   4.75059499993256992E+05   4.75071709839691641E+05   4.75083923423640314E+05
             4.75096141031917301E+05   4.75108362981138460E+05   4.75120589624055661E+05   4.75132821195355034E+05   4.75145057973545510E+05
             4.75157300157266029E+05   4.75169547710550716E+05   4.75181800527199986E+05   4.75194058582688100E+05   4.75206321890302410E+05
             4.75218590556183073E+05   4.75230864577035536E+05   4.75243143121517322E+05   4.75255425260934280E+05   4.75267710018657905E+05
             4.75279998879689025E+05   4.75292293294931238E+05   4.75304594607356412E+05   4.75316903361461591E+05   4.75329220009692770E+05
             4.75341545093359251E+05   4.75353879130021785E+05   4.75366222744467261E+05   4.75378576507891063E+05   4.75390940789048094E+05
             4.75403315923470946E+05   4.75415702297586948E+05   4.75428100137305097E+05   4.75440509740932321E+05   4.75452931484074157E+05
             4.75465365527030081E+05   4.75477812129491300E+05   4.75490271543004841E+05   4.75502743701319268E+05   4.75515228552685992E+05
             4.75527726119072991E+05   4.75540236352378910E+05   4.75552759300668375E+05   4.75565294974980003E+05   4.75577842981814756E+05
             4.75590402912206948E+05   4.75602974329676654E+05   4.75615557587301126E+05   4.75628153031027818E+05   4.75640760989836359E+05
             4.75653381464310049E+05   4.75666014457364276E+05   4.75678660025682359E+05   4.75691317879439390E+05   4.75703987800726551E+05
             4.75716669520775380E+05   4.75729363039795950E+05   4.75742068324296910E+05   4.75754785457355378E+05   4.75767514112632489E+05
             4.75780254095340322E+05   4.75793005305570550E+05   4.75805766971383069E+05   4.75818538428207219E+05   4.75831318875783938E+05
             4.75844107995364757E+05   4.75856905343492341E+05   4.75869710590186121E+05   4.75882523046622751E+05   4.75895342146066949E+05
             4.75908167158654716E+05   4.75920996205398173E+05   4.75933827249093971E+05
 ETA=    6   4.73464075633346278E+05   4.73475267481279618E+05   4.73486468035638507E+05   4.73497686002261180E+05   4.73508927909364807E+05
             4.73520191394937341E+05   4.73531471919899574E+05   4.73542765567256953E+05   4.73554071235933690E+05   4.73565388447954843E+05
             4.73576716764218640E+05   4.73588054373427469E+05   4.73599399504251429E+05   4.73610750444694830E+05   4.73622106100884208E+05
             4.73633465439936961E+05   4.73644827452008554E+05   4.73656191129450221E+05   4.73667555489725783E+05   4.73678919993292482E+05
             4.73690284774189466E+05   4.73701650411752576E+05   4.73713017491702340E+05   4.73724386616860400E+05   4.73735758398371167E+05
             4.73747133506613958E+05   4.73758513340467762E+05   4.73769899359701492E+05   4.73781293333136593E+05   4.73792695420548320E+05
             4.73804106091022724E+05   4.73815525834437693E+05   4.73826955938838131E+05   4.73838397713545011E+05   4.73849852411673404E+05
             4.73861321473088814E+05   4.73872806281717843E+05   4.73884308324740909E+05   4.73895828356932849E+05   4.73907367235911195E+05
             4.73918925871027808E+05   4.73930505390671373E+05   4.73942106974809140E+05   4.73953731791192142E+05   4.73965380877009826E+05
             4.73977055257170927E+05   4.73988755620033946E+05   4.74000481582697888E+05   4.74012232425927941E+05   4.74024007448181976E+05
             4.74035805874563113E+05   4.74047626947918441E+05   4.74059469906188780E+05   4.74071333851817530E+05   4.74083217882357305E+05
             4.74095121049185167E+05   4.74107042789280822E+05   4.74118982493634860E+05   4.74130939542711421E+05   4.74142913188973267E+05
             4.74154902674432728E+05   4.74166907251733821E+05   4.74178926131037588E+05   4.74190958533314639E+05   4.74203003660179209E+05
             4.74215060812717653E+05   4.74227129273099185E+05   4.74239208302388550E+05   4.74251297094453825E+05   4.74263394822673989E+05
             4.74275500675465970E+05   4.74287614016039937E+05   4.74299734223591746E+05   4.74311860820360307E+05   4.74323993342354952E+05
             4.74336131469593383E+05   4.74348274893912196E+05   4.74360423483935476E+05   4.74372577121259877E+05   4.74384735665769200E+05
             4.74396898929962947E+05   4.74409066705608449E+05   4.74421238776430895E+05   4.74433415013511898E+05   4.74445595280946058E+05
             4.74457779451291484E+05   4.74469967365151097E+05   4.74482158872407163E+05   4.74494353822011093E+05   4.74506551969840715E+05
             4.74518753071532992E+05   4.74530956831744348E+05   4.74543163096162665E+05   4.74555371660416946E+05   4.74567582309648220E+05
             4.74579794766664272E+05   4.74592008744581603E+05   4.74604223936818365E+05   4.74616440021998598E+05   4.74628656659958826E+05
             4.74640873539140448E+05   4.74653090752223972E+05   4.74665308421301772E+05   4.74677526653306792E+05   4.74689745552029286E+05
             4.74701965206756431E+05   4.74714185686260229E+05   4.74726406938087894E+05   4.74738628889829735E+05   4.74750851399038860E+05
             4.74763074672518298E+05   4.74775298848036618E+05   4.74787524058751878E+05   4.74799750304870307E+05   4.74811977583001484E+05
             4.74824205889057310E+05   4.74836435111986008E+05   4.74848665141262638E+05   4.74860895769234456E+05   4.74873127010691969E+05
             4.74885358785248012E+05   4.74897591003025358E+05   4.74909823529171001E+05   4.74922056221633218E+05   4.74934288877220883E+05
             4.74946521104628337E+05   4.74958752454099304E+05   4.74970982477369660E+05   4.74983211845650512E+05   4.74995441235047707E+05
             4.75007671258784481E+05   4.75019902360326960E+05   4.75032134924635815E+05   4.75044369318826066E+05   4.75056605839114403E+05
             4.75068844769839023E+05   4.75081086293015629E+05   4.75093330946695991E+05   4.75105579174683779E+05   4.75117831395063491E+05
             4.75130087934970390E+05   4.75142349105986592E+05   4.75154615196919709E+05   4.75166886417372676E+05   4.75179162966493343E+05
             4.75191444867613609E+05   4.75203732315405505E+05   4.75216025343325164E+05   4.75228323995078972E+05   4.75240628413255268E+05
             4.75252938767211279E+05   4.75265255059564603E+05   4.75277576571100566E+05   4.75289902433872863E+05   4.75302231602972432E+05
             4.75314565628710610E+05   4.75326905904275365E+05   4.75339253644325188E+05   4.75351609415689833E+05   4.75363973628192325E+05
             4.75376346682663599E+05   4.75388729027511552E+05   4.75401121126025915E+05   4.75413523237753077E+05   4.75425935965941986E+05
             4.75438359735735052E+05   4.75450794919258042E+05   4.75463241853442683E+05   4.75475700848605193E+05   4.75488172185797303E+05
             4.75500656017800269E+05   4.75513152495336777E+05   4.75525661591411568E+05   4.75538183590145025E+05   4.75550718625865062E+05
             4.75563266771734634E+05   4.75575828150800895E+05   4.75588402852478670E+05   4.75600990809879208E+05   4.75613591829186655E+05
             4.75626205587163859E+05   4.75638831577292585E+05   4.75651470226135978E+05   4.75664121803397138E+05   4.75676786431676650E+05
             4.75689464229226927E+05   4.75702155193038634E+05   4.75714859210330644E+05   4.75727575921275537E+05   4.75740304880386451E+05
             4.75753045335912670E+05   4.75765797689697996E+05   4.75778562059732212E+05   4.75791338540802535E+05   4.75804126950004487E+05
             4.75816927100367902E+05   4.75829738755012047E+05   4.75842561081030464E+05   4.75855393212955212E+05   4.75868233851620927E+05
             4.75881083251173259E+05   4.75893941247469105E+05   4.75906807632674521E+05   4.75919682047294395E+05   4.75932564099455136E+05
             4.75945452975863416E+05   4.75958346687329118E+05   4.75971242830812524E+05
 ETA=    7   4.73496454986313183E+05   4.73507649655772722E+05   4.73518853074206272E+05   4.73530073990588135E+05   4.73541318934152194E+05
             4.73552585555171769E+05   4.73563869284180168E+05   4.73575166241856525E+05   4.73586475309463742E+05   4.73597796058410604E+05
             4.73609127805122756E+05   4.73620468846093398E+05   4.73631817222832644E+05   4.73643171115243749E+05   4.73654529256803042E+05
             4.73665890519380162E+05   4.73677253763079585E+05   4.73688617800945998E+05   4.73699981434259098E+05   4.73711343795985507E+05
             4.73722705345840077E+05   4.73734066875224409E+05   4.73745429159234220E+05   4.73756792907739931E+05   4.73768158814305905E+05
             4.73779527735872660E+05   4.73790901182886329E+05   4.73802280829169322E+05   4.73813668137001805E+05   4.73825063722494582E+05
             4.73836467990216566E+05   4.73847881500862830E+05   4.73859305439635122E+05   4.73870741147861641E+05   4.73882189981153526E+05
             4.73893653352253197E+05   4.73905132688185724E+05   4.73916629322267370E+05   4.73928144212977844E+05   4.73939678225087351E+05
             4.73951232284937054E+05   4.73962807565149502E+05   4.73974405299917446E+05   4.73986026689262770E+05   4.73997672796521976E+05
             4.74009344650860410E+05   4.74021042994888732E+05   4.74032767424998863E+05   4.74044517251027923E+05   4.74056291770352924E+05
             4.74068090230509290E+05   4.74079911866572453E+05   4.74091755888581916E+05   4.74103621406434104E+05   4.74115507504990092E+05
             4.74127413320075837E+05   4.74139338191378221E+05   4.74151281509549415E+05   4.74163242638160358E+05   4.74175220832456485E+05
             4.74187215320602176E+05   4.74199225326892454E+05   4.74211250060145685E+05   4.74223288725310937E+05   4.74235340540655016E+05
             4.74247404777715099E+05   4.74259480721345928E+05   4.74271567636536201E+05   4.74283664708808879E+05   4.74295771103820589E+05
             4.74307886024817417E+05   4.74320008825401659E+05   4.74332138896764838E+05   4.74344275675449695E+05   4.74356418779403088E+05
             4.74368567871923035E+05   4.74380722653273842E+05   4.74392882971584215E+05   4.74405048711949494E+05   4.74417219742639805E+05
             4.74429395864625694E+05   4.74441576862052956E+05   4.74453762532637513E+05   4.74465952728376549E+05   4.74478147314837785E+05
             4.74490346155022853E+05   4.74502549101670331E+05   4.74514756004952942E+05   4.74526966696441523E+05   4.74539180933299882E+05
             4.74551398454089940E+05   4.74563619013926713E+05   4.74575842434136372E+05   4.74588068552598008E+05   4.74600297189604025E+05
             4.74612528095100366E+05   4.74624761001446110E+05   4.74636995636329870E+05   4.74649231708757463E+05   4.74661468923063716E+05
             4.74673707046128286E+05   4.74685946095008461E+05   4.74698186149306188E+05   4.74710427288340346E+05   4.74722669590299134E+05
             4.74734913133087568E+05   4.74747157960811805E+05   4.74759403982381802E+05   4.74771651072908426E+05   4.74783899154232291E+05
             4.74796148335113423E+05   4.74808398771041539E+05   4.74820650590245670E+05   4.74832903811911587E+05   4.74845158427964256E+05
             4.74857414406497963E+05   4.74869671620284615E+05   4.74881929918265436E+05   4.74894189173241379E+05   4.74906449353452073E+05
             4.74918710450996645E+05   4.74930972440316109E+05   4.74943235225218174E+05   4.74955498691852263E+05   4.74967762679004401E+05
             4.74980026836006320E+05   4.74992290764826175E+05   4.75004554236702796E+05   4.75016817699957406E+05   4.75029081772181846E+05
             4.75041347028113378E+05   4.75053613871071022E+05   4.75065882661519572E+05   4.75078153731164872E+05   4.75090427296678827E+05
             4.75102703545974859E+05   4.75114982714300160E+05   4.75127265226237883E+05   4.75139551553705183E+05   4.75151842140002234E+05
             4.75164137313962565E+05   4.75176437375802721E+05   4.75188742594445532E+05   4.75201053113639879E+05   4.75213369045840867E+05
             4.75225690512352972E+05   4.75238017669879075E+05   4.75250350683971250E+05   4.75262689729895152E+05   4.75275035021769581E+05
             4.75287386783426802E+05   4.75299745065308758E+05   4.75312109224296466E+05   4.75324478443881089E+05   4.75336852264598012E+05
             4.75349231655161071E+05   4.75361617941328848E+05   4.75374012287309335E+05   4.75386415211108513E+05   4.75398827069182007E+05
             4.75411248206946184E+05   4.75423678925660439E+05   4.75436119515544502E+05   4.75448570302407665E+05   4.75461031754414900E+05
             4.75473504375320277E+05   4.75485988636701193E+05   4.75498484881427779E+05   4.75510993420193437E+05   4.75523514516797557E+05
             4.75536048247463128E+05   4.75548594641519128E+05   4.75561153774932201E+05   4.75573725910219830E+05   4.75586311356537335E+05
             4.75598910391345504E+05   4.75611523165327089E+05   4.75624149797470483E+05   4.75636790345515648E+05   4.75649444622209703E+05
             4.75662112379051105E+05   4.75674793439093744E+05   4.75687487911612028E+05   4.75700195977435331E+05   4.75712917783812911E+05
             4.75725653343673621E+05   4.75738402636366081E+05   4.75751165530584287E+05   4.75763941452404310E+05   4.75776729717247421E+05
             4.75789529798148142E+05   4.75802341798593639E+05   4.75815165979684098E+05   4.75828002527684439E+05   4.75840851329519064E+05
             4.75853712197276996E+05   4.75866584795106202E+05   4.75879468195389782E+05   4.75892361322569719E+05   4.75905263298827689E+05
             4.75918174037303543E+05   4.75931093648876704E+05   4.75944022189052950E+05   4.75956959491842950E+05   4.75969905335883843E+05
             4.75982859074490436E+05   4.75995818359688972E+05   4.76008780418183422E+05
 ETA=    8   4.73529007969147293E+05   4.73540205575707019E+05   4.73551411963260383E+05   4.73562635912470752E+05   4.73573883907873707E+05
             4.73585153701713483E+05   4.73596440750402049E+05   4.73607741304910101E+05   4.73619053979247459E+05   4.73630378182684013E+05
             4.73641713323240052E+05   4.73653057470049302E+05   4.73664408692198049E+05   4.73675765321199317E+05   4.73687125802419032E+05
             4.73698488845310756E+05   4.73709853110512777E+05   4.73721217284297978E+05   4.73732580006175092E+05   4.73743940007403202E+05
             4.73755298140469473E+05   4.73766655351781985E+05   4.73778012565657264E+05   4.73789370681756234E+05   4.73800730579346302E+05
             4.73812093455295486E+05   4.73823460525896517E+05   4.73834833325877145E+05   4.73846213507051580E+05   4.73857601638357271E+05
             4.73868998406412604E+05   4.73880404901945090E+05   4.73891822033189295E+05   4.73903251112799509E+05   4.73914693635374715E+05
             4.73926150788574480E+05   4.73937623942283855E+05   4.73949114428359258E+05   4.73960623278561165E+05   4.73972151486987656E+05
             4.73983700094683096E+05   4.73995270295243361E+05   4.74006863329583022E+05   4.74018480381347705E+05   4.74030122611262603E+05
             4.74041791123196308E+05   4.74053486645536323E+05   4.74065208831709984E+05   4.74076956960210111E+05   4.74088730240527133E+05
             4.74100527969832590E+05   4.74112349376599304E+05   4.74124193624091917E+05   4.74136059905425529E+05   4.74147947348639427E+05
             4.74159855099157547E+05   4.74171782472015184E+05   4.74183728799638513E+05   4.74195693360294797E+05   4.74207675431929703E+05
             4.74219674238364387E+05   4.74231688965359703E+05   4.74243718859225570E+05   4.74255763128307706E+05   4.74267820969988883E+05
             4.74279891656836029E+05   4.74291974450624199E+05   4.74304068606078683E+05   4.74316173312159604E+05   4.74328287751065160E+05
             4.74340411177763075E+05   4.74352542852044920E+05   4.74364682106882508E+05   4.74376828392295749E+05   4.74388981308337301E+05
             4.74401140572672244E+05   4.74413305979554425E+05   4.74425477317637822E+05   4.74437654452727002E+05   4.74449837255247810E+05
             4.74462025518413924E+05   4.74474219040588883E+05   4.74486417612294026E+05   4.74498621093574387E+05   4.74510829337044677E+05
             4.74523042163787468E+05   4.74535259447346965E+05   4.74547481030012830E+05   4.74559706703934120E+05   4.74571936286833952E+05
             4.74584169546430872E+05   4.74596406226517807E+05   4.74608646185001417E+05   4.74620889255804534E+05   4.74633135250322346E+05
             4.74645383954790130E+05   4.74657635132669238E+05   4.74669888571640709E+05   4.74682143992587866E+05   4.74694401140174479E+05
             4.74706659860618063E+05   4.74718920096708636E+05   4.74731181892303808E+05   4.74743445313170436E+05   4.74755710380415723E+05
             4.74767977136661822E+05   4.74780245585906552E+05   4.74792515674339083E+05   4.74804787309241656E+05   4.74817060372606968E+05
             4.74829334984335874E+05   4.74841611238826648E+05   4.74853889160152292E+05   4.74866168803972076E+05   4.74878450155544153E+05
             4.74890733140250435E+05   4.74903017707777675E+05   4.74915303748039529E+05   4.74927591116066731E+05   4.74939879831889353E+05
             4.74952169880883128E+05   4.74964461226514948E+05   4.74976753805099463E+05   4.74989047531509539E+05   4.75001342313302972E+05
             4.75013637882191106E+05   4.75025933963375806E+05   4.75038230436453363E+05   4.75050527640026936E+05   4.75062826068602270E+05
             4.75075126211479830E+05   4.75087428394249815E+05   4.75099732940185408E+05   4.75112040152187110E+05   4.75124350254841789E+05
             4.75136663456785784E+05   4.75148979917848017E+05   4.75161300079434004E+05   4.75173624340134964E+05   4.75185953061054519E+05
             4.75198286556642910E+05   4.75210625111657137E+05   4.75222968989973480E+05   4.75235318362640042E+05   4.75247673389703676E+05
             4.75260034173806082E+05   4.75272400956429366E+05   4.75284773933790857E+05   4.75297153296762088E+05   4.75309539272153459E+05
             4.75321932096034929E+05   4.75334331857126264E+05   4.75346738227990747E+05   4.75359150750714121E+05   4.75371569105431321E+05
             4.75383994121690223E+05   4.75396426785754040E+05   4.75408867957379203E+05   4.75421318082153273E+05   4.75433777500057069E+05
             4.75446246565303183E+05   4.75458725537240272E+05   4.75471214711839915E+05   4.75483714326126443E+05   4.75496224854469532E+05
             4.75508746735841793E+05   4.75521280406204693E+05   4.75533826154486916E+05   4.75546384291177441E+05   4.75558955074815603E+05
             4.75571538654607430E+05   4.75584135153308336E+05   4.75596744552559219E+05   4.75609367276993871E+05   4.75622003636527923E+05
             4.75634653983435652E+05   4.75647318431889056E+05   4.75659997164933593E+05   4.75672690512595000E+05   4.75685398239567468E+05
             4.75698120283522177E+05   4.75710856679004675E+05   4.75723607335707464E+05   4.75736372284717101E+05   4.75749151720498863E+05
             4.75761945353771211E+05   4.75774753080978931E+05   4.75787574790960934E+05   4.75800409922486928E+05   4.75813257926866587E+05
             4.75826118153454910E+05   4.75838990770186356E+05   4.75851875861420878E+05   4.75864773345560126E+05   4.75877683148493117E+05
             4.75890605046586134E+05   4.75903538551709091E+05   4.75916483125493571E+05   4.75929437979656563E+05   4.75942402116173354E+05
             4.75955375627360947E+05   4.75968358408820292E+05   4.75981350372072309E+05   4.75994351567603997E+05   4.76007362073027412E+05
             4.76020381629480748E+05   4.76033407429424988E+05   4.76046436335671751E+05
 ETA=    9   4.73561744054947689E+05   4.73572944723179622E+05   4.73584154204386985E+05   4.73595381310989149E+05   4.73606632522416592E+05
             4.73617905653669615E+05   4.73629196186720685E+05   4.73640500431230699E+05   4.73651816804835456E+05   4.73663144553511054E+05
             4.73674482899928931E+05   4.73685829962421965E+05   4.73697183837602846E+05   4.73708542925841874E+05   4.73719905467030068E+05
             4.73731270006868930E+05   4.73742635022777540E+05   4.73753999057046953E+05   4.73765360586138791E+05   4.73776718158252770E+05
             4.73788072801039263E+05   4.73799425616839260E+05   4.73810777682634594E+05   4.73822130087167257E+05   4.73833483896699850E+05
             4.73844840532189293E+05   4.73856201032393554E+05   4.73867566792504862E+05   4.73878939242435386E+05   4.73890319315999513E+05
             4.73901707982924767E+05   4.73913106699672644E+05   4.73924516262856254E+05   4.73935937955526344E+05   4.73947373314568424E+05
             4.73958823398646782E+05   4.73970289519308601E+05   4.73981772895316011E+05   4.73993274743351969E+05   4.74004796186739928E+05
             4.74016338376473170E+05   4.74027902532434848E+05   4.74039489901808847E+05   4.74051101669319789E+05   4.74062739075997553E+05
             4.74074403300498147E+05   4.74086095152483089E+05   4.74097814247467846E+05   4.74109559832363797E+05   4.74121331060467870E+05
             4.74133127246838587E+05   4.74144947613331082E+05   4.74156791301766760E+05   4.74168657563416171E+05   4.74180545569766604E+05
             4.74192454529345501E+05   4.74204383679049613E+05   4.74216332292832958E+05   4.74228299581979401E+05   4.74240284828542266E+05
             4.74252287252024049E+05   4.74264306017610535E+05   4.74276340391208651E+05   4.74288389584588993E+05   4.74300452800171217E+05
             4.74312529285658908E+05   4.74324618279631890E+05   4.74336719022063713E+05   4.74348830709932547E+05   4.74360952541981009E+05
             4.74373083798084815E+05   4.74385223670996143E+05   4.74397371435059234E+05   4.74409526472739002E+05   4.74421688447327761E+05
             4.74433857130898628E+05   4.74446032382164674E+05   4.74458213960213470E+05   4.74470401711340295E+05   4.74482595496515627E+05
             4.74494795112983498E+05   4.74507000373280142E+05   4.74519211079685425E+05   4.74531427081603440E+05   4.74543648218717019E+05
             4.74555874281711644E+05   4.74568105153555225E+05   4.74580340668842720E+05   4.74592580594167637E+05   4.74604824794153159E+05
             4.74617073066150537E+05   4.74629325191547803E+05   4.74641581016196869E+05   4.74653840370649647E+05   4.74666103054217645E+05
             4.74678368892767408E+05   4.74690637681646855E+05   4.74702909241900605E+05   4.74715183333150344E+05   4.74727459741253406E+05
             4.74739738340579032E+05   4.74752019050710544E+05   4.74764301880129846E+05   4.74776586853351095E+05   4.74788873961778998E+05
             4.74801163213156746E+05   4.74813454560884333E+05   4.74825747998886334E+05   4.74838043467215495E+05   4.74850340887205850E+05
             4.74862640310768969E+05   4.74874941771710990E+05   4.74887245195272029E+05   4.74899550668226613E+05   4.74911858169992163E+05
             4.74924167579200352E+05   4.74936478926739888E+05   4.74948792144657520E+05   4.74961107141604647E+05   4.74973423918483197E+05
             4.74985742455284751E+05   4.74998062675405468E+05   4.75010384577210702E+05   4.75022708105731173E+05   4.75035033180950675E+05
             4.75047359674146806E+05   4.75059687435456493E+05   4.75072016431923781E+05   4.75084346913976187E+05   4.75096679253451119E+05
             4.75109013789181772E+05   4.75121350834697543E+05   4.75133690676226513E+05   4.75146033526315296E+05   4.75158379680575745E+05
             4.75170729368312866E+05   4.75183082755429787E+05   4.75195440220843244E+05   4.75207802089380624E+05   4.75220168578206038E+05
             4.75232540051800897E+05   4.75244916778706596E+05   4.75257298931824858E+05   4.75269686799062300E+05   4.75282080587039352E+05
             4.75294480448635528E+05   4.75306886645915569E+05   4.75319299404075136E+05   4.75331718837425346E+05   4.75344145282843325E+05
             4.75356578985985077E+05   4.75369019974688359E+05   4.75381468343043874E+05   4.75393923989671224E+05   4.75406386865043547E+05
             4.75418857535214163E+05   4.75431336642509850E+05   4.75443824624121306E+05   4.75456321977457148E+05   4.75468829021345766E+05
             4.75481345962370047E+05   4.75493873182047799E+05   4.75506410977198509E+05   4.75518959561977710E+05   4.75531519359363767E+05
             4.75544090738058498E+05   4.75556673932951468E+05   4.75569269352779200E+05   4.75581877301913803E+05   4.75594497871490137E+05
             4.75607131454892457E+05   4.75619778262155596E+05   4.75632438294261345E+05   4.75645112034038117E+05   4.75657799785163486E+05
             4.75670501762282976E+05   4.75683218264641298E+05   4.75695949532441853E+05   4.75708695875649923E+05   4.75721457312378567E+05
             4.75734233960725542E+05   4.75747025892347505E+05   4.75759833000171755E+05   4.75772655161053292E+05   4.75785492314037867E+05
             4.75798344177772698E+05   4.75811210562287830E+05   4.75824091113232600E+05   4.75836985553024453E+05   4.75849893467409944E+05
             4.75862814288036956E+05   4.75875748049220885E+05   4.75888694656539126E+05   4.75901653571439674E+05   4.75914624953469960E+05
             4.75927608540930145E+05   4.75940603517168143E+05   4.75953609915808716E+05   4.75966627234010259E+05   4.75979654701913358E+05
             4.75992692249005137E+05   4.76005739551344072E+05   4.76018796115663834E+05   4.76031862473974237E+05   4.76044939000345941E+05
             4.76058025449144421E+05   4.76071118929630320E+05   4.76084215938961192E+05
 ETA=   10   4.73594675776025280E+05   4.73605879650520103E+05   4.73617092369647871E+05   4.73628322778041940E+05   4.73639577497470076E+05
             4.73650854258240026E+05   4.73662148567794124E+05   4.73673456529189774E+05   4.73684776627943967E+05   4.73696107945188647E+05
             4.73707449402461236E+05   4.73718799282920896E+05   4.73730155710132443E+05   4.73741516850423708E+05   4.73752881041175744E+05
             4.73764246662532445E+05   4.73775612083179585E+05   4.73786975625969470E+05   4.73798335602295701E+05   4.73809690814611793E+05
             4.73821042029608914E+05   4.73832390505037794E+05   4.73843737497826398E+05   4.73855084261612035E+05   4.73866432049209485E+05
             4.73877782113653666E+05   4.73889135708861577E+05   4.73900494088970299E+05   4.73911858508058125E+05   4.73923230219966965E+05
             4.73934610478479706E+05   4.73946000537395070E+05   4.73957401650574931E+05   4.73968815071897290E+05   4.73980242055235605E+05
             4.73991683854446630E+05   4.74003141723382520E+05   4.74014616915897001E+05   4.74026110685847991E+05   4.74037624287094921E+05
             4.74049158973496465E+05   4.74060715998910484E+05   4.74072296617194137E+05   4.74083902082204993E+05   4.74095533647800796E+05
             4.74107192567839462E+05   4.74118879756388837E+05   4.74130594768357289E+05   4.74142336818862939E+05   4.74154105123024143E+05
             4.74165898895959195E+05   4.74177717352786392E+05   4.74189559708624030E+05   4.74201425178590289E+05   4.74213312977803696E+05
             4.74225222321382375E+05   4.74237152424444794E+05   4.74249102502109134E+05   4.74261071769493748E+05   4.74273059441716934E+05
             4.74285064733896870E+05   4.74297086861152085E+05   4.74309125038600643E+05   4.74321178481361014E+05   4.74333246404551435E+05
             4.74345328023290262E+05   4.74357422552695672E+05   4.74369529207886138E+05   4.74381647203979839E+05   4.74393775756095070E+05
             4.74405914079350187E+05   4.74418061388863425E+05   4.74430216899753141E+05   4.74442379929024144E+05   4.74454550201227074E+05
             4.74466727542798966E+05   4.74478911780177092E+05   4.74491102739798371E+05   4.74503300248100131E+05   4.74515504131519410E+05
             4.74527714216493419E+05   4.74539930329459137E+05   4.74552152296853834E+05   4.74564379945114662E+05   4.74576613100678544E+05
             4.74588851589982805E+05   4.74601095239464485E+05   4.74613343875560735E+05   4.74625597324708709E+05   4.74637855413345445E+05
             4.74650117967908154E+05   4.74662384814833989E+05   4.74674655780559988E+05   4.74686930691523361E+05   4.74699209374161146E+05
             4.74711491654910496E+05   4.74723777360208624E+05   4.74736066316492565E+05   4.74748358350199531E+05   4.74760653287766560E+05
             4.74772950979936402E+05   4.74785251374673564E+05   4.74797554444248381E+05   4.74809860160930897E+05   4.74822168496991333E+05
             4.74834479424699792E+05   4.74846792916326609E+05   4.74859108944141830E+05   4.74871427480415616E+05   4.74883748497418244E+05
             4.74896071967419703E+05   4.74908397862690268E+05   4.74920726155500161E+05   4.74933056818119483E+05   4.74945389822818397E+05
             4.74957725141867122E+05   4.74970062747535761E+05   4.74982402612094535E+05   4.74994744707813603E+05   4.75007089006963128E+05
             4.75019435481813329E+05   4.75031784104634309E+05   4.75044134847696288E+05   4.75056487683269370E+05   4.75068842583623773E+05
             4.75081199521029659E+05   4.75093558467757190E+05   4.75105919441616454E+05   4.75118282642577076E+05   4.75130648316148610E+05
             4.75143016707840550E+05   4.75155388063162507E+05   4.75167762627623975E+05   4.75180140646734508E+05   4.75192522366003599E+05
             4.75204908030940860E+05   4.75217297887055727E+05   4.75229692179857928E+05   4.75242091154856782E+05   4.75254495057562017E+05
             4.75266904133483011E+05   4.75279318628129375E+05   4.75291738787010720E+05   4.75304164855636423E+05   4.75316597079516156E+05
             4.75329035704159352E+05   4.75341480975075683E+05   4.75353933137774642E+05   4.75366392437765724E+05   4.75378859120558598E+05
             4.75391333431662642E+05   4.75403815616587352E+05   4.75416305920842511E+05   4.75428804589937383E+05   4.75441311876104679E+05
             4.75453828058469400E+05   4.75466353422879358E+05   4.75478888255182537E+05   4.75491432841226750E+05   4.75503987466860097E+05
             4.75516552417930390E+05   4.75529127980285790E+05   4.75541714439773932E+05   4.75554312082242977E+05   4.75566921193540795E+05
             4.75579542059515195E+05   4.75592174966014165E+05   4.75604820198885805E+05   4.75617478043978103E+05   4.75630148787139100E+05
             4.75642832714216260E+05   4.75655530111057102E+05   4.75668241263509321E+05   4.75680966457422532E+05   4.75693705978646351E+05
             4.75706460113029170E+05   4.75719229146413447E+05   4.75732013364640414E+05   4.75744813053556369E+05   4.75757628499029553E+05
             4.75770459986933274E+05   4.75783307707005995E+05   4.75796171464445186E+05   4.75809050968313823E+05   4.75821945927749272E+05
             4.75834856052189658E+05   4.75847781051147846E+05   4.75860720633856778E+05   4.75873674508428667E+05   4.75886642382695456E+05
             4.75899623965534847E+05   4.75912618970006879E+05   4.75925627110216999E+05   4.75938648096368590E+05   4.75951681623056298E+05
             4.75964727380972647E+05   4.75977785075373307E+05   4.75990854469766142E+05   4.76003935342222569E+05   4.76017027416463301E+05
             4.76030130198808271E+05   4.76043243141226994E+05   4.76056365898527030E+05   4.76069498936867691E+05   4.76082642925246095E+05
             4.76095797775658022E+05   4.76108960372093308E+05   4.76122126841540099E+05
 ETA=   11   4.73627810709202429E+05   4.73639017801303824E+05   4.73650233884555346E+05   4.73661467949894257E+05   4.73672726592866180E+05
             4.73684007460372988E+05   4.73695305804095464E+05   4.73706617712485604E+05   4.73717941458863439E+05   4.73729276154209103E+05
             4.73740620870659011E+05   4.73751973604658386E+05   4.73763332315264212E+05   4.73774695265917457E+05   4.73786060552708223E+05
             4.73797426578206127E+05   4.73808791696029773E+05   4.73820154286368750E+05   4.73831512682952860E+05   4.73842865332864516E+05
             4.73854213343035604E+05   4.73865557935993245E+05   4.73876900331560231E+05   4.73888241714411648E+05   4.73899583268336835E+05
             4.73910926536269253E+05   4.73922272668569640E+05   4.73933623175933782E+05   4.73944979602945910E+05   4.73956343003876507E+05
             4.73967714467409067E+05   4.73979095563501294E+05   4.73990487211099768E+05   4.74001890810507233E+05   4.74013308015221497E+05
             4.74024739999653248E+05   4.74036188191808236E+05   4.74047653928314860E+05   4.74059138526844850E+05   4.74070643214562442E+05
             4.74082169248429767E+05   4.74093717951514118E+05   4.74105290677162120E+05   4.74116888716278947E+05   4.74128513400226890E+05
             4.74140165998653974E+05   4.74151847394336597E+05   4.74163557219645882E+05   4.74175294720731035E+05   4.74187059049560223E+05
             4.74198849505834631E+05   4.74210665295712941E+05   4.74222505547146546E+05   4.74234369499111490E+05   4.74246256312692538E+05
             4.74258165183801146E+05   4.74270095325666247E+05   4.74282045986362791E+05   4.74294016352166189E+05   4.74306005680260598E+05
             4.74318013166085642E+05   4.74330037951272272E+05   4.74342079276332573E+05   4.74354136328016000E+05   4.74366208285019617E+05
             4.74378294362461660E+05   4.74390393767440284E+05   4.74402505708209355E+05   4.74414629351462936E+05   4.74426763865141023E+05
             4.74438908494672331E+05   4.74451062399579037E+05   4.74463224817036884E+05   4.74475395106891636E+05   4.74487572944248503E+05
             4.74499758127217647E+05   4.74511950536869059E+05   4.74524149954177730E+05   4.74536356243383838E+05   4.74548569282922545E+05
             4.74560788894830854E+05   4.74573014915592619E+05   4.74585247176834557E+05   4.74597485521531838E+05   4.74609729787955701E+05
             4.74621979766677076E+05   4.74634235341678897E+05   4.74646496349357301E+05   4.74658762556949863E+05   4.74671033831789449E+05
             4.74683309971950657E+05   4.74695590780515457E+05   4.74707876117776555E+05   4.74720165848660632E+05   4.74732459805466002E+05
             4.74744757837941695E+05   4.74757059762706573E+05   4.74769365427400684E+05   4.74781674654530070E+05   4.74793987297000131E+05
             4.74806303313170094E+05   4.74818622550517728E+05   4.74830944961307512E+05   4.74843270521351660E+05   4.74855599198835902E+05
             4.74867930985099578E+05   4.74880265816905827E+05   4.74892603678394866E+05   4.74904944499020639E+05   4.74917288230848033E+05
             4.74929634855843557E+05   4.74941984378647234E+05   4.74954336699024716E+05   4.74966691885536478E+05   4.74979049902276485E+05
             4.74991410608034930E+05   4.75003774023415579E+05   4.75016140064157953E+05   4.75028508694036631E+05   4.75040879908870673E+05
             4.75053253753102559E+05   4.75065630213190801E+05   4.75078009320114274E+05   4.75090391048058809E+05   4.75102775370751042E+05
             4.75115162308712432E+05   4.75127551883923763E+05   4.75139944296039350E+05   4.75152339561537141E+05   4.75164737877487729E+05
             4.75177139439890860E+05   4.75189544488386891E+05   4.75201953266152530E+05   4.75214365942225675E+05   4.75226782769219892E+05
             4.75239203931763303E+05   4.75251629675983917E+05   4.75264060194160964E+05   4.75276495747733105E+05   4.75288936501405202E+05
             4.75301382776634942E+05   4.75313834807713574E+05   4.75326292726405547E+05   4.75338756791250897E+05   4.75351227169846883E+05
             4.75363704169920180E+05   4.75376188035108265E+05   4.75388679163145367E+05   4.75401177841440833E+05   4.75413684488376777E+05
             4.75426199429571803E+05   4.75438722847783880E+05   4.75451255215371901E+05   4.75463796883508156E+05   4.75476348399029113E+05
             4.75488909730639018E+05   4.75501481067093613E+05   4.75514062479138025E+05   4.75526654282500094E+05   4.75539256700894446E+05
             4.75551869843309221E+05   4.75564493948980351E+05   4.75577129168675921E+05   4.75589775858047185E+05   4.75602434151768277E+05
             4.75615104415328300E+05   4.75627786900971958E+05   4.75640482034729270E+05   4.75653190156492172E+05   4.75665911395982257E+05
             4.75678646173980203E+05   4.75691394729690917E+05   4.75704157401658827E+05   4.75716934439852193E+05   4.75729726222724887E+05
             4.75742533039671020E+05   4.75755355174642522E+05   4.75768192852724227E+05   4.75781046432098199E+05   4.75793916214655153E+05
             4.75806802665446885E+05   4.75819706526650058E+05   4.75832627049149014E+05   4.75845563789410517E+05   4.75858516442512919E+05
             4.75871484679466754E+05   4.75884468335718440E+05   4.75897467082686198E+05   4.75910480625818192E+05   4.75923508528960636E+05
             4.75936550622288254E+05   4.75949606523892784E+05   4.75962676136091701E+05   4.75975758954381337E+05   4.75988855130996555E+05
             4.76001964428829437E+05   4.76015086087561504E+05   4.76028220172612811E+05   4.76041366243422963E+05   4.76054524041650991E+05
             4.76067693044462067E+05   4.76080872924686992E+05   4.76094063250026724E+05   4.76107264755677897E+05   4.76120478085460374E+05
             4.76133703111050767E+05   4.76146936430981732E+05   4.76160173879849841E+05
 ETA=   12   4.73661136609347886E+05   4.73672347101287916E+05   4.73683566732181527E+05   4.73694804640278278E+05   4.73706067536714720E+05
             4.73717352841928776E+05   4.73728655549359566E+05   4.73739971472464036E+05   4.73751298931034456E+05   4.73762637065847637E+05
             4.73773984996131680E+05   4.73785340535081690E+05   4.73796701476042916E+05   4.73808065874695545E+05   4.73819431890955078E+05
             4.73830797949503583E+05   4.73842162447187759E+05   4.73853523764507205E+05   4.73864880257064826E+05   4.73876230450506206E+05
             4.73887575358850590E+05   4.73898916169217089E+05   4.73910254066753841E+05   4.73921590165379166E+05   4.73932925580016454E+05
             4.73944261738793692E+05   4.73955600094929629E+05   4.73966942417024518E+05   4.73978290575914376E+05   4.73989645391439553E+05
             4.74001007786465401E+05   4.74012379070174706E+05   4.74023760402823857E+05   4.74035153330909205E+05   4.74046559574006882E+05
             4.74057980561308505E+05   4.74069417894608807E+05   4.74080873132397595E+05   4.74092347517904593E+05   4.74103842250688002E+05
             4.74115358578496438E+05   4.74126897906150727E+05   4.74138461686431372E+05   4.74150051312199561E+05   4.74161668128261052E+05
             4.74173313419814454E+05   4.74184988062768534E+05   4.74196691742953262E+05   4.74208423737589736E+05   4.74220183251764392E+05
             4.74231969554111070E+05   4.74243781841775519E+05   4.74255619248870353E+05   4.74267480944823823E+05   4.74279366036413237E+05
             4.74291273643078806E+05   4.74303203033242549E+05   4.74315153488166514E+05   4.74327124235208088E+05   4.74339114503860532E+05
             4.74351123469841550E+05   4.74363150270115584E+05   4.74375194101630070E+05   4.74387254122688086E+05   4.74399329480187502E+05
             4.74411419384488079E+05   4.74423523034683603E+05   4.74435639620806440E+05   4.74447768272280344E+05   4.74459908109680749E+05
             4.74472058319019445E+05   4.74484218093835923E+05   4.74496386693441775E+05   4.74508563517056231E+05   4.74520748193917971E+05
             4.74532940493588918E+05   4.74545140253529768E+05   4.74557347307560034E+05   4.74569561557832232E+05   4.74581782907240093E+05
             4.74594011201304733E+05   4.74606246286683308E+05   4.74618488000705896E+05   4.74630736202529864E+05   4.74642990742385446E+05
             4.74655251434745034E+05   4.74667518161622342E+05   4.74679790769712476E+05   4.74692069045760087E+05   4.74704352819421736E+05
             4.74716641860876698E+05   4.74728935936002294E+05   4.74741234952846717E+05   4.74753538815676584E+05   4.74765847388382768E+05
             4.74778160518460383E+05   4.74790478013582993E+05   4.74802799699686409E+05   4.74815125438238436E+05   4.74827455109521514E+05
             4.74839788679411809E+05   4.74852125994838309E+05   4.74864466988691129E+05   4.74876811605360999E+05   4.74889159843778703E+05
             4.74901511714889901E+05   4.74913867164180905E+05   4.74926226143391686E+05   4.74938588539582503E+05   4.74950954234068340E+05
             4.74963323269010056E+05   4.74975695682013233E+05   4.74988071413099708E+05   4.75000450514724129E+05   4.75012832943593094E+05
             4.75025218551859609E+05   4.75037607301895623E+05   4.75049999053985171E+05   4.75062393686792115E+05   4.75074791296751297E+05
             4.75087192001874384E+05   4.75099595837242203E+05   4.75112002859037602E+05   4.75124413044764777E+05   4.75136826348336937E+05
             4.75149242860919156E+05   4.75161662655430089E+05   4.75174085917807883E+05   4.75186512677624123E+05   4.75198943083753111E+05
             4.75211377253860701E+05   4.75223815451988543E+05   4.75236257918762567E+05   4.75248704783384746E+05   4.75261156270963373E+05
             4.75273612504708639E+05   4.75286073613172513E+05   4.75298539856132760E+05   4.75311011510200216E+05   4.75323488720697816E+05
             4.75335971827113885E+05   4.75348461051686492E+05   4.75360956461522030E+05   4.75373458283253829E+05   4.75385966604924004E+05
             4.75398481586958165E+05   4.75411003685847681E+05   4.75423533449664828E+05   4.75436071256046591E+05   4.75448617654860544E+05
             4.75461173048692697E+05   4.75473737664056069E+05   4.75486312101598189E+05   4.75498896813621570E+05   4.75511492275447643E+05
             4.75524098519239575E+05   4.75536715631175146E+05   4.75549343527438119E+05   4.75561982501617749E+05   4.75574632709675352E+05
             4.75587294101641572E+05   4.75599966860878165E+05   4.75612650996838289E+05   4.75625346614000679E+05   4.75638054025474528E+05
             4.75650773670900788E+05   4.75663505778526189E+05   4.75676250915157783E+05   4.75689009468763310E+05   4.75701781525614031E+05
             4.75714567539122130E+05   4.75727367694461835E+05   4.75740182165231672E+05   4.75753011393036461E+05   4.75765855841332581E+05
             4.75778715734456258E+05   4.75791591433352616E+05   4.75804483094089548E+05   4.75817390865696594E+05   4.75830315357729851E+05
             4.75843257207684568E+05   4.75856217177921208E+05   4.75869194506639964E+05   4.75882188591423619E+05   4.75895198820467805E+05
             4.75908225128257414E+05   4.75921267473375367E+05   4.75934325464380498E+05   4.75947398838187510E+05   4.75960487012121768E+05
             4.75973589470034931E+05   4.75986706209726457E+05   4.75999837321635569E+05   4.76012982394992083E+05   4.76026141740635736E+05
             4.76039315192423412E+05   4.76052501963419607E+05   4.76065701989486872E+05   4.76078914606892678E+05   4.76092139096033177E+05
             4.76105375388033921E+05   4.76118623373697745E+05   4.76131882673461980E+05   4.76145154157544312E+05   4.76158438440024562E+05
             4.76171735095710552E+05   4.76185040695888165E+05   4.76198350782144174E+05
 ETA=   13   4.73694636275841447E+05   4.73705850370470376E+05   4.73717073751990334E+05   4.73728315707292524E+05   4.73739583097650728E+05
             4.73750873081869679E+05   4.73762180393136747E+05   4.73773500504138356E+05   4.73784831845557201E+05   4.73796173587574798E+05
             4.73807524642997712E+05   4.73818882895131013E+05   4.73830245969904936E+05   4.73841611629919673E+05   4.73852978184456180E+05
             4.73864344079465838E+05   4.73875707749303721E+05   4.73887067581939627E+05   4.73898421953747631E+05   4.73909769703369879E+05
             4.73921111518523656E+05   4.73932448549194785E+05   4.73943781927762728E+05   4.73955112716182251E+05   4.73966441958801530E+05
             4.73977770863719867E+05   4.73989101294039516E+05   4.74000435276613920E+05   4.74011774626503873E+05   4.74023120311601437E+05
             4.74034473088006198E+05   4.74045833868089656E+05   4.74057204189309792E+05   4.74068585745396325E+05   4.74079980243961734E+05
             4.74091389448150003E+05   4.74102815134987526E+05   4.74114258980727580E+05   4.74125722258528695E+05   4.74137206140776107E+05
             4.74148711863280740E+05   4.74160240915556671E+05   4.74171794850543898E+05   4.74183375179159397E+05   4.74194983244228468E+05
             4.74206620346553333E+05   4.74218287454848294E+05   4.74229984209475690E+05   4.74241709918709763E+05   4.74253463870771986E+05
             4.74265245273672394E+05   4.74277053315367899E+05   4.74288887161173334E+05   4.74300745885834622E+05   4.74312628541455255E+05
             4.74324534223876020E+05   4.74336462203886185E+05   4.74348411796012253E+05   4.74360382288330700E+05   4.74372372863118420E+05
             4.74384382676202629E+05   4.74396410879047122E+05   4.74408456605662708E+05   4.74420518985697126E+05   4.74432597159010940E+05
             4.74444690306317061E+05   4.74456797618541517E+05   4.74468918266925088E+05   4.74481051343967498E+05   4.74493195922483283E+05
             4.74505351110031188E+05   4.74517516153147793E+05   4.74529690333113773E+05   4.74541873007768474E+05   4.74554063841184950E+05
             4.74566262573994813E+05   4.74578468980053789E+05   4.74590682966114138E+05   4.74602904472152237E+05   4.74615133424254658E+05
             4.74627369692947890E+05   4.74639613134868327E+05   4.74651863607528561E+05   4.74664120971944416E+05   4.74676385090007738E+05
             4.74688655822727946E+05   4.74700933027585677E+05   4.74713216561178851E+05   4.74725506260939874E+05   4.74737801887637004E+05
             4.74750103182872699E+05   4.74762409921812126E+05   4.74774722013871768E+05   4.74787039402030932E+05   4.74799362005080038E+05
             4.74811689645054808E+05   4.74824022119802423E+05   4.74836359245338826E+05   4.74848700910356827E+05   4.74861047021718347E+05
             4.74873397487266106E+05   4.74885752218766545E+05   4.74898111128967023E+05   4.74910474150135007E+05   4.74922841292618599E+05
             4.74935212586286012E+05   4.74947588029974897E+05   4.74959967498400190E+05   4.74972350835246267E+05   4.74984737921825494E+05
             4.74997128789961687E+05   4.75009523509106715E+05   4.75021922128402162E+05   4.75034324615749123E+05   4.75046730918738293E+05
             4.75059140960778110E+05   4.75071554568548221E+05   4.75083971544545842E+05   4.75096391755675548E+05   4.75108815326470940E+05
             4.75121242445872806E+05   4.75133673267566890E+05   4.75146107804217783E+05   4.75158546033235209E+05   4.75170987955811201E+05
             4.75183433668267156E+05   4.75195883290706901E+05   4.75208336939294881E+05   4.75220794714437507E+05   4.75233256712601811E+05
             4.75245723053080670E+05   4.75258193946471612E+05   4.75270669626197952E+05   4.75283150296156993E+05   4.75295636042140482E+05
             4.75308126920413983E+05   4.75320623025412380E+05   4.75333124604248442E+05   4.75345631942204200E+05   4.75358145310757158E+05
             4.75370664926166122E+05   4.75383190990885429E+05   4.75395723673563334E+05   4.75408263007623726E+05   4.75420808992684819E+05
             4.75433361743255751E+05   4.75445921833410917E+05   4.75458489952115749E+05   4.75471066751555831E+05   4.75483652736796765E+05
             4.75496248376124247E+05   4.75508854149855149E+05   4.75521470586431387E+05   4.75534098226326227E+05   4.75546737514806911E+05
             4.75559388516317180E+05   4.75572051200094633E+05   4.75584725552877295E+05   4.75597411631403374E+05   4.75610109509911621E+05
             4.75622819225990039E+05   4.75635540670624643E+05   4.75648273698150995E+05   4.75661018270599947E+05   4.75673774780782987E+05
             4.75686543729207013E+05   4.75699325603365956E+05   4.75712120838702191E+05   4.75724929857645067E+05   4.75737753031811095E+05
             4.75750590529564477E+05   4.75763442468456342E+05   4.75776309035685146E+05   4.75789190697037848E+05   4.75802087987948849E+05
             4.75815001366826706E+05   4.75827930983977683E+05   4.75840876912682375E+05   4.75853839346635097E+05   4.75866818961184763E+05
             4.75879816552093776E+05   4.75892832652971847E+05   4.75905866748817207E+05   4.75918918062474986E+05   4.75931985957532015E+05
             4.75945070360541577E+05   4.75958171338798827E+05   4.75971288824506395E+05   4.75984422209497832E+05   4.75997570750514453E+05
             4.76010733872655139E+05   4.76023911674448173E+05   4.76037104422779754E+05   4.76050312322508427E+05   4.76063535330384155E+05
             4.76076773341129534E+05   4.76090026117861387E+05   4.76103292897272797E+05   4.76116572784451011E+05   4.76129865051083674E+05
             4.76143169635260536E+05   4.76156486641671916E+05   4.76169816254159261E+05   4.76183158973169513E+05   4.76196515378300566E+05
             4.76209885160010890E+05   4.76223264452200616E+05   4.76236648499629868E+05
 ETA=   14   4.73728292727704858E+05   4.73739510658144252E+05   4.73750738014329865E+05   4.73761984221386665E+05   4.73773256240070390E+05
             4.73784551059576275E+05   4.73795863205567410E+05   4.73807187906082545E+05   4.73818523453863570E+05   4.73829868845235673E+05
             4.73841223122733936E+05   4.73852583904108789E+05   4.73863948855008814E+05   4.73875315691544733E+05   4.73886682765961159E+05
             4.73898048483180639E+05   4.73909411218665540E+05   4.73920769448177074E+05   4.73932121620916820E+05   4.73943466833833663E+05
             4.73954805493603286E+05   4.73966138658077456E+05   4.73977467337070848E+05   4.73988792654563207E+05   4.74000115689196566E+05
             4.74011437567727524E+05   4.74022760170699679E+05   4.74034085428521619E+05   4.74045415607782255E+05   4.74056751309091575E+05
             4.74068093470108754E+05   4.74079443067775632E+05   4.74090801841154054E+05   4.74102171569543018E+05   4.74113553983302205E+05
             4.74124950982643175E+05   4.74136364419248246E+05   4.74147796239259595E+05   4.74159247616817767E+05   4.74170719820228813E+05
             4.74182214166553458E+05   4.74193732209418900E+05   4.74205275551521685E+05   4.74216845769354026E+05   4.74228444284327212E+05
             4.74240072492172825E+05   4.74251731364861596E+05   4.74263420596005337E+05   4.74275139456588018E+05   4.74286887222813908E+05
             4.74298663071625575E+05   4.74310466185811325E+05   4.74322295744409144E+05   4.74334150802250777E+05   4.74346030410783074E+05
             4.74357933568193053E+05   4.74369859618819959E+05   4.74381807854086102E+05   4.74393777555676235E+05   4.74405767878836486E+05
             4.74417777969108138E+05   4.74429806980995694E+05   4.74441854024886736E+05   4.74453918220080028E+05   4.74465998660203826E+05
             4.74478094528593065E+05   4.74490204982890049E+05   4.74502329162074544E+05   4.74514466133748589E+05   4.74526614946821297E+05
             4.74538774667856283E+05   4.74550944512757880E+05   4.74563123715192312E+05   4.74575311681656283E+05   4.74587508020119683E+05
             4.74599712511479098E+05   4.74611924951695895E+05   4.74624145283278893E+05   4.74636373463932425E+05   4.74648609435501974E+05
             4.74660853094127902E+05   4.74673104320092942E+05   4.74685362975458440E+05   4.74697628944083466E+05   4.74709902091515076E+05
             4.74722182295844541E+05   4.74734469404763309E+05   4.74746763278209954E+05   4.74759063776148774E+05   4.74771370648962213E+05
             4.74783683646739053E+05   4.74796002492734347E+05   4.74808327155604318E+05   4.74820657576884783E+05   4.74832993688540009E+05
             4.74845335311678646E+05   4.74857682257347333E+05   4.74870034349761088E+05   4.74882391462807893E+05   4.74894753483013366E+05
[...]
             0.00000000000000000E+00   0.00000000000000000E+00   0.00000000000000000E+00   0.00000000000000000E+00   0.00000000000000000E+00
             0.00000000000000000E+00   0.00000000000000000E+00   0.00000000000000000E+00   0.00000000000000000E+00   0.00000000000000000E+00
             0.00000000000000000E+00   0.00000000000000000E+00   0.00000000000000000E+00   0.00000000000000000E+00   0.00000000000000000E+00
             0.00000000000000000E+00   0.00000000000000000E+00   0.00000000000000000E+00   0.00000000000000000E+00   0.00000000000000000E+00
             0.00000000000000000E+00   0.00000000000000000E+00   0.00000000000000000E+00   0.00000000000000000E+00   0.00000000000000000E+00
             0.00000000000000000E+00   0.00000000000000000E+00   0.00000000000000000E+00   0.00000000000000000E+00   0.00000000000000000E+00
             0.00000000000000000E+00   0.00000000000000000E+00   0.00000000000000000E+00   0.00000000000000000E+00   0.00000000000000000E+00
             0.00000000000000000E+00   0.00000000000000000E+00   0.00000000000000000E+00   0.00000000000000000E+00   0.00000000000000000E+00
             0.00000000000000000E+00   0.00000000000000000E+00   0.00000000000000000E+00   0.00000000000000000E+00   0.00000000000000000E+00
             0.00000000000000000E+00   0.00000000000000000E+00   0.00000000000000000E+00   0.00000000000000000E+00   0.00000000000000000E+00
             0.00000000000000000E+00   0.00000000000000000E+00   0.00000000000000000E+00   0.00000000000000000E+00   0.00000000000000000E+00
             0.00000000000000000E+00   0.00000000000000000E+00   0.00000000000000000E+00   0.00000000000000000E+00   0.00000000000000000E+00
             0.00000000000000000E+00   0.00000000000000000E+00   0.00000000000000000E+00   0.00000000000000000E+00   0.00000000000000000E+00
             3.61957724229103094E+06   3.61956318698162725E+06   3.61954912282552151E+06   3.61953504097601259E+06   3.61952093202862516E+06
             3.61950678434779402E+06   3.61949258574017929E+06   3.61947832103469456E+06   3.61946396314925188E+06   3.61944948202401958E+06
             3.61943486112577887E+06   3.61942013802778814E+06   3.61940536382992147E+06
 ETA=  323   0.00000000000000000E+00   0.00000000000000000E+00   0.00000000000000000E+00   0.00000000000000000E+00   0.00000000000000000E+00
             0.00000000000000000E+00   0.00000000000000000E+00   0.00000000000000000E+00   0.00000000000000000E+00   0.00000000000000000E+00
             0.00000000000000000E+00   0.00000000000000000E+00   0.00000000000000000E+00   0.00000000000000000E+00   0.00000000000000000E+00
             0.00000000000000000E+00   0.00000000000000000E+00   0.00000000000000000E+00   0.00000000000000000E+00   0.00000000000000000E+00
             0.00000000000000000E+00   0.00000000000000000E+00   0.00000000000000000E+00   0.00000000000000000E+00   0.00000000000000000E+00
             0.00000000000000000E+00   0.00000000000000000E+00   0.00000000000000000E+00   0.00000000000000000E+00   0.00000000000000000E+00
             0.00000000000000000E+00   0.00000000000000000E+00   0.00000000000000000E+00   0.00000000000000000E+00   0.00000000000000000E+00
             0.00000000000000000E+00   0.00000000000000000E+00   0.00000000000000000E+00   0.00000000000000000E+00   0.00000000000000000E+00
             0.00000000000000000E+00   0.00000000000000000E+00   0.00000000000000000E+00   0.00000000000000000E+00   0.00000000000000000E+00
             0.00000000000000000E+00   0.00000000000000000E+00   0.00000000000000000E+00   0.00000000000000000E+00   0.00000000000000000E+00
             0.00000000000000000E+00   0.00000000000000000E+00   0.00000000000000000E+00   0.00000000000000000E+00   0.00000000000000000E+00
             0.00000000000000000E+00   0.00000000000000000E+00   0.00000000000000000E+00   0.00000000000000000E+00   0.00000000000000000E+00
             0.00000000000000000E+00   0.00000000000000000E+00   0.00000000000000000E+00   0.00000000000000000E+00   0.00000000000000000E+00
             0.00000000000000000E+00   0.00000000000000000E+00   0.00000000000000000E+00   0.00000000000000000E+00   0.00000000000000000E+00
             0.00000000000000000E+00   0.00000000000000000E+00   0.00000000000000000E+00   0.00000000000000000E+00   0.00000000000000000E+00
             0.00000000000000000E+00   0.00000000000000000E+00   0.00000000000000000E+00   0.00000000000000000E+00   0.00000000000000000E+00
             0.00000000000000000E+00   0.00000000000000000E+00   0.00000000000000000E+00   0.00000000000000000E+00   0.00000000000000000E+00
             0.00000000000000000E+00   0.00000000000000000E+00   0.00000000000000000E+00   0.00000000000000000E+00   0.00000000000000000E+00
             0.00000000000000000E+00   0.00000000000000000E+00   0.00000000000000000E+00   0.00000000000000000E+00   0.00000000000000000E+00
             0.00000000000000000E+00   0.00000000000000000E+00   0.00000000000000000E+00   0.00000000000000000E+00   0.00000000000000000E+00
             0.00000000000000000E+00   0.00000000000000000E+00   0.00000000000000000E+00   0.00000000000000000E+00   0.00000000000000000E+00
             0.00000000000000000E+00   0.00000000000000000E+00   0.00000000000000000E+00   0.00000000000000000E+00   0.00000000000000000E+00
             0.00000000000000000E+00   0.00000000000000000E+00   0.00000000000000000E+00   0.00000000000000000E+00   0.00000000000000000E+00
             0.00000000000000000E+00   0.00000000000000000E+00   0.00000000000000000E+00   0.00000000000000000E+00   0.00000000000000000E+00
             0.00000000000000000E+00   0.00000000000000000E+00   0.00000000000000000E+00   0.00000000000000000E+00   0.00000000000000000E+00
             0.00000000000000000E+00   0.00000000000000000E+00   0.00000000000000000E+00   0.00000000000000000E+00   0.00000000000000000E+00
             0.00000000000000000E+00   0.00000000000000000E+00   0.00000000000000000E+00   0.00000000000000000E+00   0.00000000000000000E+00
             0.00000000000000000E+00   0.00000000000000000E+00   0.00000000000000000E+00   0.00000000000000000E+00   0.00000000000000000E+00
             0.00000000000000000E+00   0.00000000000000000E+00   0.00000000000000000E+00   0.00000000000000000E+00   0.00000000000000000E+00
             0.00000000000000000E+00   0.00000000000000000E+00   0.00000000000000000E+00   0.00000000000000000E+00   0.00000000000000000E+00
             0.00000000000000000E+00   0.00000000000000000E+00   0.00000000000000000E+00   0.00000000000000000E+00   0.00000000000000000E+00
             0.00000000000000000E+00   0.00000000000000000E+00   0.00000000000000000E+00   0.00000000000000000E+00   0.00000000000000000E+00
             0.00000000000000000E+00   0.00000000000000000E+00   0.00000000000000000E+00   0.00000000000000000E+00   0.00000000000000000E+00
             0.00000000000000000E+00   0.00000000000000000E+00   0.00000000000000000E+00   0.00000000000000000E+00   0.00000000000000000E+00
             0.00000000000000000E+00   0.00000000000000000E+00   0.00000000000000000E+00   0.00000000000000000E+00   0.00000000000000000E+00
             0.00000000000000000E+00   0.00000000000000000E+00   0.00000000000000000E+00   0.00000000000000000E+00   0.00000000000000000E+00
             0.00000000000000000E+00   0.00000000000000000E+00   0.00000000000000000E+00   0.00000000000000000E+00   0.00000000000000000E+00
             0.00000000000000000E+00   0.00000000000000000E+00   0.00000000000000000E+00   0.00000000000000000E+00   0.00000000000000000E+00
             0.00000000000000000E+00   0.00000000000000000E+00   0.00000000000000000E+00   0.00000000000000000E+00   0.00000000000000000E+00
             3.61959754278480774E+06   3.61958342169013759E+06   3.61956929082773579E+06   3.61955514041704126E+06   3.61954096014299989E+06
             3.61952673940142011E+06   3.61951246700723795E+06   3.61949812870267406E+06   3.61948369885347830E+06   3.61946914869291103E+06
             3.61945446248808689E+06   3.61943967692477582E+06   3.61942484167827386E+06
 ETA=  324   0.00000000000000000E+00   0.00000000000000000E+00   0.00000000000000000E+00   0.00000000000000000E+00   0.00000000000000000E+00
             0.00000000000000000E+00   0.00000000000000000E+00   0.00000000000000000E+00   0.00000000000000000E+00   0.00000000000000000E+00
             0.00000000000000000E+00   0.00000000000000000E+00   0.00000000000000000E+00   0.00000000000000000E+00   0.00000000000000000E+00
             0.00000000000000000E+00   0.00000000000000000E+00   0.00000000000000000E+00   0.00000000000000000E+00   0.00000000000000000E+00
             0.00000000000000000E+00   0.00000000000000000E+00   0.00000000000000000E+00   0.00000000000000000E+00   0.00000000000000000E+00
             0.00000000000000000E+00   0.00000000000000000E+00   0.00000000000000000E+00   0.00000000000000000E+00   0.00000000000000000E+00
             0.00000000000000000E+00   0.00000000000000000E+00   0.00000000000000000E+00   0.00000000000000000E+00   0.00000000000000000E+00
             0.00000000000000000E+00   0.00000000000000000E+00   0.00000000000000000E+00   0.00000000000000000E+00   0.00000000000000000E+00
             0.00000000000000000E+00   0.00000000000000000E+00   0.00000000000000000E+00   0.00000000000000000E+00   0.00000000000000000E+00
             0.00000000000000000E+00   0.00000000000000000E+00   0.00000000000000000E+00   0.00000000000000000E+00   0.00000000000000000E+00
             0.00000000000000000E+00   0.00000000000000000E+00   0.00000000000000000E+00   0.00000000000000000E+00   0.00000000000000000E+00
             0.00000000000000000E+00   0.00000000000000000E+00   0.00000000000000000E+00   0.00000000000000000E+00   0.00000000000000000E+00
             0.00000000000000000E+00   0.00000000000000000E+00   0.00000000000000000E+00   0.00000000000000000E+00   0.00000000000000000E+00
             0.00000000000000000E+00   0.00000000000000000E+00   0.00000000000000000E+00   0.00000000000000000E+00   0.00000000000000000E+00
             0.00000000000000000E+00   0.00000000000000000E+00   0.00000000000000000E+00   0.00000000000000000E+00   0.00000000000000000E+00
             0.00000000000000000E+00   0.00000000000000000E+00   0.00000000000000000E+00   0.00000000000000000E+00   0.00000000000000000E+00
             0.00000000000000000E+00   0.00000000000000000E+00   0.00000000000000000E+00   0.00000000000000000E+00   0.00000000000000000E+00
             0.00000000000000000E+00   0.00000000000000000E+00   0.00000000000000000E+00   0.00000000000000000E+00   0.00000000000000000E+00
             0.00000000000000000E+00   0.00000000000000000E+00   0.00000000000000000E+00   0.00000000000000000E+00   0.00000000000000000E+00
             0.00000000000000000E+00   0.00000000000000000E+00   0.00000000000000000E+00   0.00000000000000000E+00   0.00000000000000000E+00
             0.00000000000000000E+00   0.00000000000000000E+00   0.00000000000000000E+00   0.00000000000000000E+00   0.00000000000000000E+00
             0.00000000000000000E+00   0.00000000000000000E+00   0.00000000000000000E+00   0.00000000000000000E+00   0.00000000000000000E+00
             0.00000000000000000E+00   0.00000000000000000E+00   0.00000000000000000E+00   0.00000000000000000E+00   0.00000000000000000E+00
             0.00000000000000000E+00   0.00000000000000000E+00   0.00000000000000000E+00   0.00000000000000000E+00   0.00000000000000000E+00
             0.00000000000000000E+00   0.00000000000000000E+00   0.00000000000000000E+00   0.00000000000000000E+00   0.00000000000000000E+00
             0.00000000000000000E+00   0.00000000000000000E+00   0.00000000000000000E+00   0.00000000000000000E+00   0.00000000000000000E+00
             0.00000000000000000E+00   0.00000000000000000E+00   0.00000000000000000E+00   0.00000000000000000E+00   0.00000000000000000E+00
             0.00000000000000000E+00   0.00000000000000000E+00   0.00000000000000000E+00   0.00000000000000000E+00   0.00000000000000000E+00
             0.00000000000000000E+00   0.00000000000000000E+00   0.00000000000000000E+00   0.00000000000000000E+00   0.00000000000000000E+00
             0.00000000000000000E+00   0.00000000000000000E+00   0.00000000000000000E+00   0.00000000000000000E+00   0.00000000000000000E+00
             0.00000000000000000E+00   0.00000000000000000E+00   0.00000000000000000E+00   0.00000000000000000E+00   0.00000000000000000E+00
             0.00000000000000000E+00   0.00000000000000000E+00   0.00000000000000000E+00   0.00000000000000000E+00   0.00000000000000000E+00
             0.00000000000000000E+00   0.00000000000000000E+00   0.00000000000000000E+00   0.00000000000000000E+00   0.00000000000000000E+00
             0.00000000000000000E+00   0.00000000000000000E+00   0.00000000000000000E+00   0.00000000000000000E+00   0.00000000000000000E+00
             0.00000000000000000E+00   0.00000000000000000E+00   0.00000000000000000E+00   0.00000000000000000E+00   0.00000000000000000E+00
             0.00000000000000000E+00   0.00000000000000000E+00   0.00000000000000000E+00   0.00000000000000000E+00   0.00000000000000000E+00
             0.00000000000000000E+00   0.00000000000000000E+00   0.00000000000000000E+00   0.00000000000000000E+00   0.00000000000000000E+00
             0.00000000000000000E+00   0.00000000000000000E+00   0.00000000000000000E+00   0.00000000000000000E+00   0.00000000000000000E+00
             0.00000000000000000E+00   0.00000000000000000E+00   0.00000000000000000E+00   0.00000000000000000E+00   0.00000000000000000E+00
             3.61961788622884359E+06   3.61960369763891213E+06   3.61958949834800232E+06   3.61957527764305007E+06   3.61956102466310328E+06
             3.61954672945389291E+06   3.61953238186887186E+06   3.61951796877451008E+06   3.61950346577070234E+06   3.61948884541199915E+06
             3.61947409285610076E+06   3.61945924379375065E+06   3.61944434647423029E+06
 ETA=  325   0.00000000000000000E+00   0.00000000000000000E+00   0.00000000000000000E+00   0.00000000000000000E+00   0.00000000000000000E+00
             0.00000000000000000E+00   0.00000000000000000E+00   0.00000000000000000E+00   0.00000000000000000E+00   0.00000000000000000E+00
             0.00000000000000000E+00   0.00000000000000000E+00   0.00000000000000000E+00   0.00000000000000000E+00   0.00000000000000000E+00
             0.00000000000000000E+00   0.00000000000000000E+00   0.00000000000000000E+00   0.00000000000000000E+00   0.00000000000000000E+00
             0.00000000000000000E+00   0.00000000000000000E+00   0.00000000000000000E+00   0.00000000000000000E+00   0.00000000000000000E+00
             0.00000000000000000E+00   0.00000000000000000E+00   0.00000000000000000E+00   0.00000000000000000E+00   0.00000000000000000E+00
             0.00000000000000000E+00   0.00000000000000000E+00   0.00000000000000000E+00   0.00000000000000000E+00   0.00000000000000000E+00
             0.00000000000000000E+00   0.00000000000000000E+00   0.00000000000000000E+00   0.00000000000000000E+00   0.00000000000000000E+00
             0.00000000000000000E+00   0.00000000000000000E+00   0.00000000000000000E+00   0.00000000000000000E+00   0.00000000000000000E+00
             0.00000000000000000E+00   0.00000000000000000E+00   0.00000000000000000E+00   0.00000000000000000E+00   0.00000000000000000E+00
             0.00000000000000000E+00   0.00000000000000000E+00   0.00000000000000000E+00   0.00000000000000000E+00   0.00000000000000000E+00
             0.00000000000000000E+00   0.00000000000000000E+00   0.00000000000000000E+00   0.00000000000000000E+00   0.00000000000000000E+00
             0.00000000000000000E+00   0.00000000000000000E+00   0.00000000000000000E+00   0.00000000000000000E+00   0.00000000000000000E+00
             0.00000000000000000E+00   0.00000000000000000E+00   0.00000000000000000E+00   0.00000000000000000E+00   0.00000000000000000E+00
             0.00000000000000000E+00   0.00000000000000000E+00   0.00000000000000000E+00   0.00000000000000000E+00   0.00000000000000000E+00
             0.00000000000000000E+00   0.00000000000000000E+00   0.00000000000000000E+00   0.00000000000000000E+00   0.00000000000000000E+00
             0.00000000000000000E+00   0.00000000000000000E+00   0.00000000000000000E+00   0.00000000000000000E+00   0.00000000000000000E+00
             0.00000000000000000E+00   0.00000000000000000E+00   0.00000000000000000E+00   0.00000000000000000E+00   0.00000000000000000E+00
             0.00000000000000000E+00   0.00000000000000000E+00   0.00000000000000000E+00   0.00000000000000000E+00   0.00000000000000000E+00
             0.00000000000000000E+00   0.00000000000000000E+00   0.00000000000000000E+00   0.00000000000000000E+00   0.00000000000000000E+00
             0.00000000000000000E+00   0.00000000000000000E+00   0.00000000000000000E+00   0.00000000000000000E+00   0.00000000000000000E+00
             0.00000000000000000E+00   0.00000000000000000E+00   0.00000000000000000E+00   0.00000000000000000E+00   0.00000000000000000E+00
             0.00000000000000000E+00   0.00000000000000000E+00   0.00000000000000000E+00   0.00000000000000000E+00   0.00000000000000000E+00
             0.00000000000000000E+00   0.00000000000000000E+00   0.00000000000000000E+00   0.00000000000000000E+00   0.00000000000000000E+00
             0.00000000000000000E+00   0.00000000000000000E+00   0.00000000000000000E+00   0.00000000000000000E+00   0.00000000000000000E+00
             0.00000000000000000E+00   0.00000000000000000E+00   0.00000000000000000E+00   0.00000000000000000E+00   0.00000000000000000E+00
             0.00000000000000000E+00   0.00000000000000000E+00   0.00000000000000000E+00   0.00000000000000000E+00   0.00000000000000000E+00
             0.00000000000000000E+00   0.00000000000000000E+00   0.00000000000000000E+00   0.00000000000000000E+00   0.00000000000000000E+00
             0.00000000000000000E+00   0.00000000000000000E+00   0.00000000000000000E+00   0.00000000000000000E+00   0.00000000000000000E+00
             0.00000000000000000E+00   0.00000000000000000E+00   0.00000000000000000E+00   0.00000000000000000E+00   0.00000000000000000E+00
             0.00000000000000000E+00   0.00000000000000000E+00   0.00000000000000000E+00   0.00000000000000000E+00   0.00000000000000000E+00
             0.00000000000000000E+00   0.00000000000000000E+00   0.00000000000000000E+00   0.00000000000000000E+00   0.00000000000000000E+00
             0.00000000000000000E+00   0.00000000000000000E+00   0.00000000000000000E+00   0.00000000000000000E+00   0.00000000000000000E+00
             0.00000000000000000E+00   0.00000000000000000E+00   0.00000000000000000E+00   0.00000000000000000E+00   0.00000000000000000E+00
             0.00000000000000000E+00   0.00000000000000000E+00   0.00000000000000000E+00   0.00000000000000000E+00   0.00000000000000000E+00
             0.00000000000000000E+00   0.00000000000000000E+00   0.00000000000000000E+00   0.00000000000000000E+00   0.00000000000000000E+00
             0.00000000000000000E+00   0.00000000000000000E+00   0.00000000000000000E+00   0.00000000000000000E+00   0.00000000000000000E+00
             0.00000000000000000E+00   0.00000000000000000E+00   0.00000000000000000E+00   0.00000000000000000E+00   0.00000000000000000E+00
             0.00000000000000000E+00   0.00000000000000000E+00   0.00000000000000000E+00   0.00000000000000000E+00   0.00000000000000000E+00
             3.61963825114800921E+06   3.61962399421071541E+06   3.61960972562977718E+06   3.61959543376154825E+06   3.61958110738946265E+06
             3.61956673700526822E+06   3.61955231352779316E+06   3.61953782504002098E+06   3.61952324828156177E+06   3.61950855715618469E+06
             3.61949373772053700E+06   3.61947882464278815E+06   3.61946386474398989E+06
