*
* Deltares, Delft3D-RGFGRID Version 4.18.00.16842, May 25 2011, 10:45:12
* File creation date: 2015-05-13, 12:39:05
*
Coordinate System = Cartesian
     202     274
 0 0 0
 ETA=    1   4.87613881308402924E+05   4.87617585122123477E+05   4.87621280131923733E+05   4.87624957533883455E+05   4.87628610376604251E+05
             4.87632239118775295E+05   4.87635846071607433E+05   4.87639433223060507E+05   4.87643001268089924E+05   4.87646550578400027E+05
             4.87650081588056055E+05   4.87653594980568043E+05   4.87657091501806746E+05   4.87660571807356377E+05   4.87664036191654101E+05
             4.87667484858850075E+05   4.87670918001686165E+05   4.87674335767270939E+05   4.87677738291304326E+05   4.87681125693180424E+05
             4.87684498027068505E+05   4.87687855330831720E+05   4.87691197621339408E+05   4.87694524831485876E+05   4.87697836873171269E+05
             4.87701133648621442E+05   4.87704415021363879E+05   4.87707680845251307E+05   4.87710930947417102E+05   4.87714165048116003E+05
             4.87717382840883685E+05   4.87720584114518075E+05   4.87723769038868719E+05   4.87726937879047473E+05   4.87730090879415919E+05
             4.87733228201332502E+05   4.87736349985404813E+05   4.87739456349341956E+05   4.87742547319258214E+05   4.87745622898368863E+05
             4.87748683113443549E+05   4.87751728085468698E+05   4.87754757958984585E+05   4.87757772856560419E+05   4.87760772812880110E+05
             4.87763757840656210E+05   4.87766727937881777E+05   4.87769683043672121E+05   4.87772623082423001E+05   4.87775548007104371E+05
             4.87778457884981821E+05   4.87781352811895253E+05   4.87784232866002771E+05   4.87787098054735630E+05   4.87789948367843579E+05
             4.87792783793670824E+05   4.87795604314940574E+05   4.87798409912970674E+05   4.87801200573171780E+05   4.87803976297325047E+05
             4.87806737091304502E+05   4.87809482952457445E+05   4.87812213844024693E+05   4.87814929720719869E+05   4.87817630555563897E+05
             4.87820316394805152E+05   4.87822987302998663E+05   4.87825643316783942E+05   4.87828284361137135E+05   4.87830910333118576E+05
             4.87833521137832373E+05   4.87836116712557385E+05   4.87838697002616478E+05   4.87841261992421991E+05   4.87843811822745018E+05
             4.87846346673446649E+05   4.87848866645851813E+05   4.87851371527142008E+05   4.87853861025962920E+05   4.87856334882084804E+05
             4.87858792959776474E+05   4.87861235154431546E+05   4.87863661408436077E+05   4.87866071852146939E+05   4.87868466662913503E+05
             4.87870845885090414E+05   4.87873209031052655E+05   4.87875555480180483E+05   4.87877884661855001E+05   4.87880196205460932E+05
             4.87882489790384134E+05   4.87884765125722392E+05   4.87887022039422300E+05   4.87889260389142670E+05   4.87891479901479906E+05
             4.87893679778781079E+05   4.87895859092331084E+05   4.87898016962358553E+05   4.87900152704868233E+05   4.87902265684808895E+05
             4.87904355258193798E+05   4.87906420745295705E+05   4.87908461457452388E+05   4.87910476695876743E+05   4.87912465721284330E+05
             4.87914427784266125E+05   4.87916362156878109E+05   4.87918268197037047E+05   4.87920145284124475E+05   4.87921992751808022E+05
             4.87923809750899381E+05   4.87925595386496221E+05   4.87927348917759722E+05   4.87929070220104943E+05   4.87930759323010920E+05
             4.87932416236903751E+05   4.87934040895999817E+05   4.87935633215462789E+05   4.87937193055630079E+05   4.87938720057534112E+05
             4.87940213807380816E+05   4.87941674103908823E+05   4.87943101595986460E+05   4.87944497145014757E+05   4.87945861566998647E+05
             4.87947195496359316E+05   4.87948499522122322E+05   4.87949774200837128E+05   4.87951019959150988E+05   4.87952237191235356E+05
             4.87953426414535788E+05   4.87954588639594615E+05   4.87955725000228325E+05   4.87956836589741695E+05   4.87957924339392746E+05
             4.87958989139927900E+05   4.87960031883015821E+05   4.87961053464015655E+05   4.87962054779208614E+05   4.87963036706212733E+05
             4.87964000047991693E+05   4.87964945588845876E+05   4.87965874100250832E+05   4.87966786302383407E+05   4.87967682902595727E+05
             4.87968564629318425E+05   4.87969432295297040E+05   4.87970286734355381E+05   4.87971128683496849E+05   4.87971958492442849E+05
             4.87972776414093678E+05   4.87973582713356125E+05   4.87974377703160455E+05   4.87975161708443018E+05   4.87975935080550727E+05
             4.87976698276472976E+05   4.87977451779610245E+05   4.87978195975037292E+05   4.87978930854528502E+05   4.87979656311533006E+05
             4.87980372263603553E+05   4.87981078724708292E+05   4.87981775732918992E+05   4.87982463349100086E+05   4.87983141725286667E+05
             4.87983811036306142E+05   4.87984471387787838E+05   4.87985122608566831E+05   4.87985764458280057E+05   4.87986396720992518E+05
             4.87987019278483349E+05   4.87987632036959927E+05   4.87988234921331750E+05   4.87988827931316860E+05   4.87989411085335363E+05
             4.87989984358437883E+05   4.87990547552198695E+05   4.87991100424822478E+05   4.87991642754984146E+05   4.87992174403238227E+05
             4.87992695250609017E+05   4.87993205196648021E+05   4.87993704215014877E+05   4.87994192297896137E+05   4.87994669394945668E+05
             4.87995135285685596E+05   4.87995589707105537E+05   4.87996032423164288E+05   4.87996463305699232E+05   4.87996882253517106E+05
             4.87997289153486665E+05   4.87997683844723681E+05   4.87998066154405999E+05   4.87998435973837855E+05   4.87998793450830679E+05
             4.87999138797322346E+05   4.87999471919872507E+05   4.87999791503527260E+05   4.88000095927954302E+05   4.88000384775074490E+05
             4.88000662435821199E+05   4.88000934503381373E+05
 ETA=    2   4.87626028915531002E+05   4.87629733356907091E+05   4.87633429228351684E+05   4.87637107962551410E+05   4.87640762748402602E+05
             4.87644394044772896E+05   4.87648004077104386E+05   4.87651594785158290E+05   4.87655166741384135E+05   4.87658720246120181E+05
             4.87662255652328779E+05   4.87665773614024860E+05   4.87669274850140617E+05   4.87672759992983541E+05   4.87676229291706462E+05
             4.87679682921369153E+05   4.87683120996036974E+05   4.87686543706241588E+05   4.87689951193402812E+05   4.87693343529155827E+05
             4.87696720844586380E+05   4.87700083212567028E+05   4.87703430707002990E+05   4.87706763210025150E+05   4.87710080616097781E+05
             4.87713382770422846E+05   4.87716669566762226E+05   4.87719940860417672E+05   4.87723196448292176E+05   4.87726436126892222E+05
             4.87729659644642030E+05   4.87732866852846171E+05   4.87736057869938784E+05   4.87739232927159173E+05   4.87742392221158952E+05
             4.87745535924953467E+05   4.87748664186718117E+05   4.87751777121344174E+05   4.87754874809219036E+05   4.87757957306926546E+05
             4.87761024687274476E+05   4.87764077026563871E+05   4.87767114426691900E+05   4.87770136969786894E+05   4.87773144680512545E+05
             4.87776137572771928E+05   4.87779115642459132E+05   4.87782078853856132E+05   4.87785027161908336E+05   4.87787960539794818E+05
             4.87790879018720589E+05   4.87793782656793308E+05   4.87796671497885371E+05   4.87799545535302081E+05   4.87802404756367090E+05
             4.87805249141059816E+05   4.87808078670289950E+05   4.87810893325652287E+05   4.87813693084978149E+05   4.87816477925934189E+05
             4.87819247830672248E+05   4.87822002776378358E+05   4.87824742708227015E+05   4.87827467574254202E+05   4.87830177333818399E+05
             4.87832871988983767E+05   4.87835551560870197E+05   4.87838216037999431E+05   4.87840865349053172E+05   4.87843499398308166E+05
             4.87846118106473354E+05   4.87848721385713317E+05   4.87851309172558191E+05   4.87853881440698227E+05   4.87856438237643277E+05
             4.87858979656175710E+05   4.87861505708462442E+05   4.87864016228609602E+05   4.87866510978952167E+05   4.87868989765362523E+05
             4.87871452422216302E+05   4.87873898836640874E+05   4.87876328945835936E+05   4.87878742764928204E+05   4.87881140369113768E+05
             4.87883521704571845E+05   4.87885886358980031E+05   4.87888233802200644E+05   4.87890563556281908E+05   4.87892875226703589E+05
             4.87895168484042573E+05   4.87897443021294137E+05   4.87899698591128748E+05   4.87901934983503306E+05   4.87904151877756987E+05
             4.87906348524412140E+05   4.87908524080131610E+05   4.87910677718929714E+05   4.87912808756918297E+05   4.87914916547536617E+05
             4.87917000392718939E+05   4.87919059639775660E+05   4.87921093607334769E+05   4.87923101651455683E+05   4.87925082996572193E+05
             4.87927036929212394E+05   4.87928962679796910E+05   4.87930859649802500E+05   4.87932727212077763E+05   4.87934564605891530E+05
             4.87936371126736514E+05   4.87938145965218777E+05   4.87939888536738988E+05   4.87941598589089932E+05   4.87943276123688614E+05
             4.87944921017581015E+05   4.87946533291301981E+05   4.87948112869312637E+05   4.87949659510916099E+05   4.87951173060090805E+05
             4.87952653221620363E+05   4.87954099984807894E+05   4.87955513838548621E+05   4.87956895580306300E+05   4.87958245870884159E+05
             4.87959565440971637E+05   4.87960854905083892E+05   4.87962114755664719E+05   4.87963345581863075E+05   4.87964547867326997E+05
             4.87965722264447482E+05   4.87966869674383895E+05   4.87967991181107704E+05   4.87969087785752839E+05   4.87970160481390718E+05
             4.87971210188928875E+05   4.87972237792318338E+05   4.87973244244419970E+05   4.87974230469049711E+05   4.87975197374070471E+05
             4.87976145751213655E+05   4.87977076382290805E+05   4.87977990047322528E+05   4.87978887473637995E+05   4.87979769391312788E+05
             4.87980636567530455E+05   4.87981489775821974E+05   4.87982329830206465E+05   4.87983157411588414E+05   4.87983972940451291E+05
             4.87984776706404577E+05   4.87985569058687135E+05   4.87986350273071264E+05   4.87987120687069371E+05   4.87987880715421226E+05
             4.87988630722158938E+05   4.87989371150322258E+05   4.87990102285345667E+05   4.87990824228673999E+05   4.87991536925237218E+05
             4.87992240406341385E+05   4.87992934625501046E+05   4.87993619624054758E+05   4.87994295529409486E+05   4.87994962386597355E+05
             4.87995620328114659E+05   4.87996269351794443E+05   4.87996909398145857E+05   4.87997540273978782E+05   4.87998161872973025E+05
             4.87998774011416070E+05   4.87999376593870460E+05   4.87999969605304068E+05   4.88000552943247661E+05   4.88001126587078848E+05
             4.88001690409069823E+05   4.88002244311926654E+05   4.88002788092424977E+05   4.88003321628746460E+05   4.88003844716385123E+05
             4.88004357233801216E+05   4.88004859140242566E+05   4.88005350306799810E+05   4.88005830686948611E+05   4.88006300136577920E+05
             4.88006758522248187E+05   4.88007205614361854E+05   4.88007641266962572E+05   4.88008065285247809E+05   4.88008477559798281E+05
             4.88008878021787736E+05   4.88009266425928567E+05   4.88009642569330230E+05   4.88010006265126751E+05   4.88010357724391390E+05
             4.88010697175939917E+05   4.88011024591342022E+05   4.88011338595976995E+05   4.88011637559962517E+05   4.88011921104447742E+05
             4.88012193534344260E+05   4.88012460407028266E+05
 ETA=    3   4.87638175722544256E+05   4.87641880682862480E+05   4.87645577308358217E+05   4.87649257266739325E+05   4.87652913917551574E+05
             4.87656547693360015E+05   4.87660160728345800E+05   4.87663754884587310E+05   4.87667330645974900E+05   4.87670888237186708E+05
             4.87674427940335765E+05   4.87677950373784057E+05   4.87681456225231756E+05   4.87684946098040615E+05   4.87688420206013659E+05
             4.87691878691040562E+05   4.87695321627461642E+05   4.87698749214223295E+05   4.87702161594543140E+05   4.87705558833525109E+05
             4.87708941101806355E+05   4.87712308503387379E+05   4.87715661143628997E+05   4.87718998883302440E+05   4.87722321595710528E+05
             4.87725629098651232E+05   4.87728921290186408E+05   4.87732198023598175E+05   4.87735459093611978E+05   4.87738704348432366E+05
             4.87741933587949665E+05   4.87745146706776868E+05   4.87748343794494518E+05   4.87751525045180460E+05   4.87754690620948968E+05
             4.87757840696648811E+05   4.87760975424848846E+05   4.87764094928637729E+05   4.87767199334847566E+05   4.87770288750219450E+05
             4.87773363284492691E+05   4.87776422981605225E+05   4.87779467897721217E+05   4.87782498075644893E+05   4.87785513531970093E+05
             4.87788514278839750E+05   4.87791500313343073E+05   4.87794471624560654E+05   4.87797428195078857E+05   4.87800370014584856E+05
             4.87803297084937571E+05   4.87806209423714143E+05   4.87809107039232447E+05   4.87811989914687292E+05   4.87814858032229240E+05
             4.87817711365070485E+05   4.87820549893391319E+05   4.87823373596363468E+05   4.87826182443966449E+05   4.87828976392890268E+05
             4.87831755398931564E+05   4.87834519415241026E+05   4.87837268375299522E+05   4.87840002217775444E+05   4.87842720885746821E+05
             4.87845424342239916E+05   4.87848112562326307E+05   4.87850785493245872E+05   4.87853443063345971E+05   4.87856085181482194E+05
             4.87858711772629118E+05   4.87861322737592214E+05   4.87863918001294427E+05   4.87866497515578056E+05   4.87869061248394428E+05
             4.87871609202732740E+05   4.87874141318307316E+05   4.87876657462339441E+05   4.87879157447948644E+05   4.87881641127604409E+05
             4.87884108328061411E+05   4.87886558924937097E+05   4.87888992833841941E+05   4.87891409974185459E+05   4.87893810315780865E+05
             4.87896193725281104E+05   4.87898559850517660E+05   4.87900908248146879E+05   4.87903238515919598E+05   4.87905550256365619E+05
             4.87907843126869469E+05   4.87910116798889299E+05   4.87912370959922962E+05   4.87914605327445257E+05   4.87916819532921654E+05
             4.87919012880825088E+05   4.87921184607703472E+05   4.87923333947231586E+05   4.87925460216198291E+05   4.87927562749974313E+05
             4.87929640823703259E+05   4.87931693791806523E+05   4.87933720972693642E+05   4.87935721736994106E+05   4.87937695320871717E+05
             4.87939641038754489E+05   4.87941558122632676E+05   4.87943445983473328E+05   4.87945303978879412E+05   4.87947131320523622E+05
             4.87948927391160629E+05   4.87950691457402427E+05   4.87952423012466461E+05   4.87954121764263546E+05   4.87955787676991313E+05
             4.87957420566202374E+05   4.87959020476345439E+05   4.87960587332526629E+05   4.87962120877812558E+05   4.87963621082782280E+05
             4.87965087762359122E+05   4.87966521008353389E+05   4.87967921245755162E+05   4.87969289200781146E+05   4.87970625447797182E+05
             4.87971930751808570E+05   4.87973205746736203E+05   4.87974450926074467E+05   4.87975666981665941E+05   4.87976854481452494E+05
             4.87978014151960320E+05   4.87979146850570512E+05   4.87980253607313614E+05   4.87981335364250757E+05   4.87982393146696966E+05
             4.87983427902584895E+05   4.87984440528318693E+05   4.87985432016677456E+05   4.87986403316657466E+05   4.87987355353256455E+05
             4.87988288922116451E+05   4.87989204800788255E+05   4.87990103765818116E+05   4.87990986565245374E+05   4.87991853950501129E+05
             4.87992706703724572E+05   4.87993545584202569E+05   4.87994371385151637E+05   4.87995184759595199E+05   4.87995986171231198E+05
             4.87996775945606409E+05   4.87997554471751326E+05   4.87998322033599194E+05   4.87999078980543592E+05   4.87999825740496046E+05
             4.88000562635426817E+05   4.88001290067423251E+05   4.88002008273075800E+05   4.88002717412964616E+05   4.88003417482997524E+05
             4.88004108570618206E+05   4.88004790627081122E+05   4.88005463696458493E+05   4.88006127914957819E+05   4.88006783278897754E+05
             4.88007429877924558E+05   4.88008067658092943E+05   4.88008696615804627E+05   4.88009316604550113E+05   4.88009927570699307E+05
             4.88010529322533810E+05   4.88011121762429015E+05   4.88011704880740086E+05   4.88012278528030496E+05   4.88012842644085293E+05
             4.88013397052443237E+05   4.88013941703229910E+05   4.88014476431233750E+05   4.88015001160114189E+05   4.88015515674935421E+05
             4.88016019851001969E+05   4.88016513653082482E+05   4.88016996904457745E+05   4.88017469519311620E+05   4.88017931307269668E+05
             4.88018382174862374E+05   4.88018821925300232E+05   4.88019250452381850E+05   4.88019667545637523E+05   4.88020073086790915E+05
             4.88020467006704654E+05   4.88020849020938855E+05   4.88021218895887199E+05   4.88021576406083710E+05   4.88021921786867490E+05
             4.88022255283274862E+05   4.88022576890350319E+05   4.88022885216031980E+05   4.88023178620090301E+05   4.88023456721017137E+05
             4.88023723780031258E+05   4.88023985318476218E+05
 ETA=    4   4.87650320929327921E+05   4.87654026191502984E+05   4.87657723355206545E+05   4.87661404321967333E+05   4.87665062682765652E+05
             4.87668698786388908E+05   4.87672314671076369E+05   4.87675912059549766E+05   4.87679491412461328E+05   4.87683052874945977E+05
             4.87686596676681133E+05   4.87690123385514773E+05   4.87693633653837489E+05   4.87697128042757337E+05   4.87700606748252001E+05
             4.87704069875016576E+05   4.87707517533815990E+05   4.87710949859694752E+05   4.87714366993767268E+05   4.87717769075521443E+05
             4.87721156237939664E+05   4.87724528612377704E+05   4.87727886283055414E+05   4.87731229145648365E+05   4.87734557048695860E+05
             4.87737869840620551E+05   4.87741167369377974E+05   4.87744449482806958E+05   4.87747716028777591E+05   4.87750966855285107E+05
             4.87754201810355939E+05   4.87757420792972436E+05   4.87760623905940389E+05   4.87763811303020979E+05   4.87766983137978066E+05
             4.87770139564584359E+05   4.87773280736614601E+05   4.87776406807843305E+05   4.87779517932042188E+05   4.87782614262982737E+05
             4.87785695930044516E+05   4.87788762965041213E+05   4.87791815375394421E+05   4.87794853168526199E+05   4.87797876351858082E+05
             4.87800884932811721E+05   4.87803878918808710E+05   4.87806858317270759E+05   4.87809823135619576E+05   4.87812773375738878E+05
             4.87815709017361165E+05   4.87818630034680711E+05   4.87821536401892139E+05   4.87824428093189956E+05   4.87827305082768551E+05
             4.87830167344822432E+05   4.87833014853546105E+05   4.87835847583134018E+05   4.87838665499852737E+05   4.87841468538257119E+05
             4.87844256624974194E+05   4.87847029686630820E+05   4.87849787649854028E+05   4.87852530441270734E+05   4.87855257987507968E+05
             4.87857970215192647E+05   4.87860667050951684E+05   4.87863348418733571E+05   4.87866014231772686E+05   4.87868664400624984E+05
             4.87871298835846363E+05   4.87873917447992717E+05   4.87876520147620002E+05   4.87879106845284055E+05   4.87881677451540716E+05
             4.87884231876945996E+05   4.87886770023735298E+05   4.87889291760862281E+05   4.87891796948959818E+05   4.87894285448661190E+05
             4.87896757120599214E+05   4.87899211825407343E+05   4.87901649423718452E+05   4.87904069776165648E+05   4.87906472743381979E+05
             4.87908858149036416E+05   4.87911225668941450E+05   4.87913574941945379E+05   4.87915905606896500E+05   4.87918217302642995E+05
             4.87920509668033337E+05   4.87922782341915765E+05   4.87925034963138518E+05   4.87927267170550069E+05   4.87929478548051149E+05
             4.87931668459752633E+05   4.87933836214818002E+05   4.87935981122410740E+05   4.87938102491694328E+05   4.87940199631832133E+05
             4.87942271851987694E+05   4.87944318461324321E+05   4.87946338769005612E+05   4.87948332088037045E+05   4.87950297746792552E+05
             4.87952235077488353E+05   4.87954143412340432E+05   4.87956022083564952E+05   4.87957870423377899E+05   4.87959687763995433E+05
             4.87961473437633540E+05   4.87963226776508440E+05   4.87964947210200189E+05   4.87966634557745303E+05   4.87968288735544251E+05
             4.87969909659997560E+05   4.87971497247505584E+05   4.87973051414469082E+05   4.87974572077288409E+05   4.87976059152364091E+05
             4.87977512556096655E+05   4.87978932326678536E+05   4.87980318989469786E+05   4.87981673191622598E+05   4.87982995580288931E+05
             4.87984286802620802E+05   4.87985547505770402E+05   4.87986778336889693E+05   4.87987979943130806E+05   4.87989152971645701E+05
             4.87990298123727902E+05   4.87991416317236668E+05   4.87992508524172707E+05   4.87993575716536609E+05   4.87994618866329140E+05
             4.87995638945550891E+05   4.87996636926202569E+05   4.87997613780284824E+05   4.87998570479798480E+05   4.87999507963353535E+05
             4.88000427035998437E+05   4.88001328469390923E+05   4.88002213035188848E+05   4.88003081505050184E+05   4.88003934650632553E+05
             4.88004773243593983E+05   4.88005598055592040E+05   4.88006409858284867E+05   4.88007209354866354E+05   4.88007996974676265E+05
             4.88008773078590049E+05   4.88009538027483737E+05   4.88010292182233068E+05   4.88011035903713841E+05   4.88011769552801852E+05
             4.88012493490372784E+05   4.88013208077302610E+05   4.88013913622091641E+05   4.88014610223739466E+05   4.88015297928870015E+05
             4.88015976784107450E+05   4.88016646836075524E+05   4.88017308131398342E+05   4.88017960716699774E+05   4.88018604638604564E+05
             4.88019239943737513E+05   4.88019866654283134E+05   4.88020484694665065E+05   4.88021093964866595E+05   4.88021694364873401E+05
             4.88022285794680240E+05   4.88022868154283962E+05   4.88023441343673156E+05   4.88024005262802297E+05   4.88024559811617713E+05
             4.88025104885502893E+05   4.88025640361591591E+05   4.88026166112455016E+05   4.88026682010546210E+05   4.88027187927846797E+05
             4.88027683736220060E+05   4.88028169307969802E+05   4.88028644517160195E+05   4.88029109238296049E+05   4.88029563339406915E+05
             4.88030006662623782E+05   4.88030439043602906E+05   4.88030860324131150E+05   4.88031270370518730E+05   4.88031669055206701E+05
             4.88032056227755500E+05   4.88032431646203913E+05   4.88032795045709878E+05   4.88033146249057143E+05   4.88033485429531545E+05
             4.88033812848044152E+05   4.88034128446822346E+05   4.88034430893357610E+05   4.88034718536457338E+05   4.88034990914273774E+05
             4.88035252322338172E+05   4.88035508245526580E+05
 ETA=    5   4.87662463886251615E+05   4.87666169116914563E+05   4.87669866512502020E+05   4.87673548240442586E+05   4.87677208102413511E+05
             4.87680846334768459E+05   4.87684464816982450E+05   4.87688065180272795E+05   4.87691647798926628E+05   4.87695212810858851E+05
             4.87698760417316749E+05   4.87702291131640843E+05   4.87705805541830894E+05   4.87709304138404317E+05   4.87712787127152667E+05
             4.87716254628285125E+05   4.87719706712213112E+05   4.87723143572685018E+05   4.87726565365139220E+05   4.87729972177740710E+05
             4.87733364160210069E+05   4.87736741406170710E+05   4.87740103964999726E+05   4.87743451764370606E+05   4.87746784698603733E+05
             4.87750102611268754E+05   4.87753405387214385E+05   4.87756692870914179E+05   4.87759964870091877E+05   4.87763221263601969E+05
             4.87766461903403688E+05   4.87769686703345156E+05   4.87772895754090161E+05   4.87776089217596746E+05   4.87779267236323038E+05
             4.87782429974633211E+05   4.87785577586552070E+05   4.87788710217685672E+05   4.87791828052415280E+05   4.87794931275509065E+05
             4.87798020056052716E+05   4.87801094382056384E+05   4.87804154234349087E+05   4.87807199597094150E+05   4.87810230467440211E+05
             4.87813246854153869E+05   4.87816248765702243E+05   4.87819236222432577E+05   4.87822209252455039E+05   4.87825167883457092E+05
             4.87828112050656229E+05   4.87831041696805565E+05   4.87833956769992423E+05   4.87836857230359165E+05   4.87839743051172234E+05
             4.87842614202162484E+05   4.87845470650660165E+05   4.87848312368254818E+05   4.87851139318850474E+05   4.87853951404607273E+05
             4.87856748528019758E+05   4.87859530594918993E+05   4.87862297511571436E+05   4.87865049195514410E+05   4.87867785560081771E+05
             4.87870506497772643E+05   4.87873211905086006E+05   4.87875901669868501E+05   4.87878575692482642E+05   4.87881233873480116E+05
             4.87883876119904220E+05   4.87886502313033852E+05   4.87889112349522067E+05   4.87891706127194921E+05   4.87894283495973563E+05
             4.87896844316386618E+05   4.87899388427598402E+05   4.87901915713593189E+05   4.87904426047493354E+05   4.87906919314026600E+05
             4.87909395345133264E+05   4.87911853995322774E+05   4.87914295121289091E+05   4.87916718511501967E+05   4.87919123968598782E+05
             4.87921511244298075E+05   4.87923880057720642E+05   4.87926230090588215E+05   4.87928561027959804E+05   4.87930872504083673E+05
             4.87933164171598386E+05   4.87935435662581411E+05   4.87937686554539017E+05   4.87939916421483154E+05   4.87942124784201151E+05
             4.87944311065552407E+05   4.87946474654340942E+05   4.87948614905312366E+05   4.87950731173072825E+05   4.87952822800122027E+05
             4.87954889055023901E+05   4.87956929215100128E+05   4.87958942508416716E+05   4.87960928201605042E+05   4.87962885681446176E+05
             4.87964814399823488E+05   4.87966713715689140E+05   4.87968583066455205E+05   4.87970421825275524E+05   4.87972229233664810E+05
             4.87974004631493066E+05   4.87975747256677656E+05   4.87977456511625496E+05   4.87979132261729799E+05   4.87980774566400738E+05
             4.87982383348587900E+05   4.87983958662962192E+05   4.87985500456201320E+05   4.87987008525130921E+05   4.87988482824242441E+05
             4.87989923184267071E+05   4.87991329634473601E+05   4.87992702727785101E+05   4.87994043239365739E+05   4.87995351815971779E+05
             4.87996629221666721E+05   4.87997876112215745E+05   4.87999093034604623E+05   4.88000280678896932E+05   4.88001439642699144E+05
             4.88002570633737661E+05   4.88003674576601770E+05   4.88004752519514353E+05   4.88005805442460696E+05   4.88006834368093580E+05
             4.88007840261146717E+05   4.88008824053882621E+05   4.88009786744091834E+05   4.88010729304773849E+05   4.88011652692009811E+05
             4.88012557702402060E+05   4.88013445121437078E+05   4.88014315741739003E+05   4.88015170313745504E+05   4.88016009599394572E+05
             4.88016834399006621E+05   4.88017645491252129E+05   4.88018443696465634E+05   4.88019229749205464E+05   4.88020004055910220E+05
             4.88020766939574969E+05   4.88021518786648812E+05   4.88022259888814413E+05   4.88022990603281534E+05   4.88023711367294134E+05
             4.88024422537769540E+05   4.88025124553461210E+05   4.88025817764664418E+05   4.88026502236091532E+05   4.88027177945335396E+05
             4.88027844958683301E+05   4.88028503234066360E+05   4.88029152819597395E+05   4.88029793855146272E+05   4.88030426379197161E+05
             4.88031050523463928E+05   4.88031666355096153E+05   4.88032273757042771E+05   4.88032872548911313E+05   4.88033462640857382E+05
             4.88034043843349558E+05   4.88034616058867250E+05   4.88035179277181101E+05   4.88035733390052977E+05   4.88036278378043091E+05
             4.88036814179655339E+05   4.88037340626069170E+05   4.88037857507775072E+05   4.88038364701646962E+05   4.88038861991301470E+05
             4.88039349248336570E+05   4.88039826430242159E+05   4.88040293396353489E+05   4.88040750093512179E+05   4.88041196435397665E+05
             4.88041632211809920E+05   4.88042057180901349E+05   4.88042471187770774E+05   4.88042874018791248E+05   4.88043265549000876E+05
             4.88043645700087422E+05   4.88044014217732067E+05   4.88044370896036678E+05   4.88044715596287220E+05   4.88045048435389588E+05
             4.88045369599213765E+05   4.88045679022904427E+05   4.88045975310342852E+05   4.88046256816678797E+05   4.88046523137953482E+05
             4.88046778507366544E+05   4.88047028400359384E+05
 ETA=    6   4.87674604545621900E+05   4.87678309483717720E+05   4.87682006851577957E+05   4.87685689081120363E+05   4.87689350194544939E+05
             4.87692990309318004E+05   4.87696611141517933E+05   4.87700214172807697E+05   4.87703799752968247E+05   4.87707368008843507E+05
             4.87710919125700544E+05   4.87714453553441679E+05   4.87717971811547352E+05   4.87721474326176627E+05   4.87724961310782761E+05
             4.87728432897176244E+05   4.87731889182260726E+05   4.87735330355494109E+05   4.87738756582811417E+05   4.87742167970564682E+05
             4.87745564619427721E+05   4.87748946581589582E+05   4.87752313856506196E+05   4.87755666422610229E+05   4.87759004216438741E+05
             4.87762327126687684E+05   4.87765635028691264E+05   4.87768927760213497E+05   4.87772205134488875E+05   4.87775467019036412E+05
             4.87778713266609760E+05   4.87781943779865920E+05   4.87785158666582895E+05   4.87788358093849791E+05   4.87791542212252272E+05
             4.87794711180531769E+05   4.87797865150074125E+05   4.87801004272467282E+05   4.87804128751574899E+05   4.87807238800320483E+05
             4.87810334602278774E+05   4.87813416129810910E+05   4.87816483334485034E+05   4.87819536174134526E+05   4.87822574641599669E+05
             4.87825598744388146E+05   4.87828608491908992E+05   4.87831603920219233E+05   4.87834585075468116E+05   4.87837551992567314E+05
             4.87840504583637114E+05   4.87843442757560813E+05   4.87846366429490387E+05   4.87849275555034517E+05   4.87852170104020101E+05
             4.87855050039325841E+05   4.87857915326254501E+05   4.87860765931062633E+05   4.87863601806225139E+05   4.87866422833447694E+05
             4.87869228888599435E+05   4.87872019847172487E+05   4.87874795607223001E+05   4.87877556074430468E+05   4.87880301141303557E+05
             4.87883030676106748E+05   4.87885744542088534E+05   4.87888442597620946E+05   4.87891124726657348E+05   4.87893790816827444E+05
             4.87896440752629074E+05   4.87899074407793290E+05   4.87901691661758872E+05   4.87904292380966246E+05   4.87906876375943772E+05
             4.87909443453598884E+05   4.87911993416125712E+05   4.87914526139934198E+05   4.87917041507059243E+05   4.87919539396865701E+05
             4.87922019645257853E+05   4.87924482096691034E+05   4.87926926579673251E+05   4.87929352838231600E+05   4.87931760612972314E+05
             4.87934149617004325E+05   4.87936519583719491E+05   4.87938870233330526E+05   4.87941201273651444E+05   4.87943512362410140E+05
             4.87945803161212010E+05   4.87948073290937988E+05   4.87950322277611122E+05   4.87952549625245098E+05   4.87954754800229741E+05
             4.87956937281447696E+05   4.87959096531515592E+05   4.87961231965032988E+05   4.87963342975150736E+05   4.87965428931063507E+05
             4.87967489109851362E+05   4.87969522716245148E+05   4.87971528889751295E+05   4.87973506804151402E+05   4.87975455959506507E+05
             4.87977375919423706E+05   4.87979266144064197E+05   4.87981126111681224E+05   4.87982955227690923E+05   4.87984752754981164E+05
             4.87986517939197191E+05   4.87988249914770655E+05   4.87989947955498821E+05   4.87991612084170745E+05   4.87993242494327074E+05
             4.87994839234772138E+05   4.87996402389095572E+05   4.87997931925572921E+05   4.87999427660067566E+05   4.88000889455239347E+05
             4.88002317048044410E+05   4.88003710338910343E+05   4.88005070036196325E+05   4.88006397035952774E+05   4.88007692095226841E+05
             4.88008955990991148E+05   4.88010189381455712E+05   4.88011392815760861E+05   4.88012566929739027E+05   4.88013712266438582E+05
             4.88014829448386619E+05   4.88015919503178331E+05   4.88016983551179525E+05   4.88018022627412458E+05   4.88019037761386833E+05
             4.88020029907351825E+05   4.88020999981214001E+05   4.88021948985557712E+05   4.88022877892021323E+05   4.88023787637573492E+05
             4.88024679048875754E+05   4.88025552923407406E+05   4.88026410042342206E+05   4.88027251168732531E+05   4.88028077053340501E+05
             4.88028888471522660E+05   4.88029686263657757E+05   4.88030471297614626E+05   4.88031244349137414E+05   4.88032005792549753E+05
             4.88032755912094784E+05   4.88033495030183578E+05   4.88034223459707806E+05   4.88034941553362412E+05   4.88035649724914867E+05
             4.88036348427804129E+05   4.88037038177847397E+05   4.88037719402230054E+05   4.88038392096505500E+05   4.88039056168572046E+05
             4.88039711592364649E+05   4.88040358349753136E+05   4.88040996489598881E+05   4.88041626132796169E+05   4.88042247422461573E+05
             4.88042860574650404E+05   4.88043465742971573E+05   4.88044062727612851E+05   4.88044651267108915E+05   4.88045231172216532E+05
             4.88045802274024696E+05   4.88046364476746821E+05   4.88046917754455819E+05   4.88047462096775009E+05   4.88047997564144956E+05
             4.88048524178283289E+05   4.88049041684618453E+05   4.88049549790799734E+05   4.88050048275266017E+05   4.88050536936714721E+05
             4.88051015645722277E+05   4.88051484342120471E+05   4.88051942973972182E+05   4.88052391559769399E+05   4.88052830088950577E+05
             4.88053258269266807E+05   4.88053675780623860E+05   4.88054082376638835E+05   4.88054477859158302E+05   4.88054862105103792E+05
             4.88055235023579793E+05   4.88055596433274157E+05   4.88055946186528890E+05   4.88056284205488802E+05   4.88056610528881371E+05
             4.88056925266743696E+05   4.88057228269620740E+05   4.88057518155939702E+05   4.88057793286351953E+05   4.88058053237266606E+05
             4.88058302257429925E+05   4.88058545812671364E+05
 ETA=    7   4.87686743010229839E+05   4.87690447459425661E+05   4.87694144604077970E+05   4.87697827139643428E+05   4.87701489237122762E+05
             4.87705130969693768E+05   4.87708753886078484E+05   4.87712359295576753E+05   4.87715947549798817E+05   4.87719518760932842E+05
             4.87723073096972425E+05   4.87726610949133697E+05   4.87730132764438400E+05   4.87733638938664750E+05   4.87737129662616819E+05
             4.87740605075855157E+05   4.87744065323461138E+05   4.87747510572600295E+05   4.87750940995958692E+05   4.87754356738622359E+05
             4.87757757835276425E+05   4.87761144293005462E+05   4.87764516113582358E+05   4.87767873277532402E+05   4.87771215760069026E+05
             4.87774543511832366E+05   4.87777856385169551E+05   4.87781154207854590E+05   4.87784436811429798E+05   4.87787704042511468E+05
             4.87790955751484376E+05   4.87794191841849184E+05   4.87797412429570453E+05   4.87800617683728575E+05   4.87803807769503270E+05
             4.87806982836472336E+05   4.87810143030312785E+05   4.87813288512096624E+05   4.87816419504475663E+05   4.87819536245496594E+05
             4.87822638920100057E+05   4.87825727500803419E+05   4.87828801907017652E+05   4.87831862072143354E+05   4.87834907985538535E+05
             4.87837939650550252E+05   4.87840957080193388E+05   4.87843960326152737E+05   4.87846949449780746E+05   4.87849924480922811E+05
             4.87852885323395487E+05   4.87855831849508570E+05   4.87858763946791994E+05   4.87861681563658349E+05   4.87864584663740883E+05
             4.87867473209766671E+05   4.87870347160839010E+05   4.87873206475155370E+05   4.87876051092321577E+05   4.87878880877577816E+05
             4.87881695677572687E+05   4.87884495346371725E+05   4.87887279767707689E+05   4.87890048832730332E+05   4.87892802421947010E+05
             4.87895540373296186E+05   4.87898262514073693E+05   4.87900968679030077E+05   4.87903658732733340E+05   4.87906332547205733E+05
             4.87908989992351737E+05   4.87911630929605046E+05   4.87914255218281352E+05   4.87916862699506222E+05   4.87919453141644364E+05
             4.87922026294870069E+05   4.87924581932241214E+05   4.87927119918348966E+05   4.87929640140667674E+05   4.87932142477155954E+05
             4.87934626767708454E+05   4.87937092842703918E+05   4.87939540506451565E+05   4.87941969458982639E+05   4.87944379374258628E+05
             4.87946769939438323E+05   4.87949140894468583E+05   4.87951491992493568E+05   4.87953822971821646E+05   4.87956133511419233E+05
             4.87958423275417357E+05   4.87960691888346744E+05   4.87962938816337730E+05   4.87965163485920464E+05   4.87967365340482909E+05
             4.87969543890843750E+05   4.87971698664679716E+05   4.87973829166125564E+05   4.87975934805149620E+05   4.87978014968178410E+05
             4.87980068983969744E+05   4.87982095950606687E+05   4.87984094908503233E+05   4.87986065001994837E+05   4.87988005791102012E+05
             4.87989916939766728E+05   4.87991798072377744E+05   4.87993648655112716E+05   4.87995468114596326E+05   4.87997255809621362E+05
             4.87999010827653750E+05   4.88000732188327587E+05   4.88002419127424248E+05   4.88004071745315043E+05   4.88005690358518041E+05
             4.88007275227512815E+05   4.88008826388622343E+05   4.88010343822130642E+05   4.88011827450679033E+05   4.88013276966338512E+05
             4.88014692003537726E+05   4.88016072425816848E+05   4.88017419013163773E+05   4.88018732774677977E+05   4.88020014660384797E+05
             4.88021265384011727E+05   4.88022485600212181E+05   4.88023675935145176E+05   4.88024836900994065E+05   4.88025968981448445E+05
             4.88027072777685360E+05   4.88028149360834272E+05   4.88029199919512088E+05   4.88030225601073762E+05   4.88031227387825318E+05
             4.88032206220810302E+05   4.88033163045624620E+05   4.88034098826073110E+05   4.88035014530513145E+05   4.88035911100587458E+05
             4.88036789371082035E+05   4.88037650150068395E+05   4.88038494234045793E+05   4.88039322373223840E+05   4.88040135306239885E+05
             4.88040933801091451E+05   4.88041718743217702E+05   4.88042491047417861E+05   4.88043251516882330E+05   4.88044000508365280E+05
             4.88044738267011824E+05   4.88045465055098175E+05   4.88046181203425571E+05   4.88046887059925881E+05   4.88047583013336465E+05
             4.88048269615614321E+05   4.88048947459521471E+05   4.88049617012062343E+05   4.88050278237210761E+05   4.88050930973183073E+05
             4.88051575093424937E+05   4.88052210612299968E+05   4.88052837579401210E+05   4.88053456086127495E+05   4.88054066391101805E+05
             4.88054668794752448E+05   4.88055263490358135E+05   4.88055850242596352E+05   4.88056428708994586E+05   4.88056998588482093E+05
             4.88057559745595849E+05   4.88058112086274719E+05   4.88058655555521196E+05   4.88059190254592802E+05   4.88059716323810688E+05
             4.88060233817572414E+05   4.88060742446580785E+05   4.88061241835614725E+05   4.88061731650229602E+05   4.88062211719085928E+05
             4.88062681911620544E+05   4.88063142134030000E+05   4.88063592439550150E+05   4.88064032918176672E+05   4.88064463578479073E+05
             4.88064884103323100E+05   4.88065294094148267E+05   4.88065693198571447E+05   4.88066081248917792E+05   4.88066458123689517E+05
             4.88066823706680501E+05   4.88067177902851021E+05   4.88067520622453070E+05   4.88067851796348696E+05   4.88068171437840851E+05
             4.88068479580842482E+05   4.88068775981212559E+05   4.88069059282592556E+05   4.88069327850569738E+05   4.88069581232456723E+05
             4.88069823702466616E+05   4.88070060716538050E+05
 ETA=    8   4.87698879357146856E+05   4.87702583269663446E+05   4.87706280071935034E+05   4.87709962655479147E+05   4.87713625540701731E+05
             4.87717268571776513E+05   4.87720893229634617E+05   4.87724500719814328E+05   4.87728091379747901E+05   4.87731665282198810E+05
             4.87735222546406032E+05   4.87738763524346636E+05   4.87742288625245623E+05   4.87745798195711395E+05   4.87749292424846150E+05
             4.87752771450208849E+05   4.87756235422261758E+05   4.87759684493990091E+05   4.87763118842284894E+05   4.87766538630842289E+05
             4.87769943880581297E+05   4.87773334610007121E+05   4.87776710748421436E+05   4.87780072347809037E+05   4.87783419381402957E+05
             4.87786751801382634E+05   4.87790069451973715E+05   4.87793372166169633E+05   4.87796659786036646E+05   4.87799932153590722E+05
             4.87803189129224105E+05   4.87806430617525999E+05   4.87809656734671211E+05   4.87812867650028784E+05   4.87816063521261327E+05
             4.87819244503124210E+05   4.87822410747220856E+05   4.87825562414583808E+05   4.87828699735078611E+05   4.87831822956329386E+05
             4.87834932318971551E+05   4.87838027736228134E+05   4.87841109122255002E+05   4.87844176391719491E+05   4.87847229539218883E+05
             4.87850268567776599E+05   4.87853293481640343E+05   4.87856304333653592E+05   4.87859301185676188E+05   4.87862284111444606E+05
             4.87865252954925294E+05   4.87868207579324720E+05   4.87871147852641123E+05   4.87874073719819076E+05   4.87876985138355289E+05
             4.87879882060302538E+05   4.87882764432474680E+05   4.87885632204123016E+05   4.87888485313362384E+05   4.87891323595742113E+05
             4.87894146883255104E+05   4.87896955009788333E+05   4.87899747841597360E+05   4.87902525255279790E+05   4.87905287117338914E+05
             4.87908033233778959E+05   4.87910763409376435E+05   4.87913477422386874E+05   4.87916175148435635E+05   4.87918856445371057E+05
             4.87921521166795283E+05   4.87924169147407112E+05   4.87926800227780128E+05   4.87929414234502590E+05   4.87932010889398807E+05
             4.87934589911236777E+05   4.87937150972408592E+05   4.87939693993486173E+05   4.87942218859869463E+05   4.87944725446398661E+05
             4.87947213569710497E+05   4.87949683048841194E+05   4.87952133684151690E+05   4.87954565127157315E+05   4.87956977025067725E+05
             4.87959368933116726E+05   4.87961740698302572E+05   4.87964092091342027E+05   4.87966422869286325E+05   4.87968732698046777E+05
             4.87971021247447468E+05   4.87973288162633835E+05   4.87975532864269859E+05   4.87977754768267740E+05   4.87979953145958716E+05
             4.87982127681058424E+05   4.87984277935694321E+05   4.87986403457218956E+05   4.87988503643919423E+05   4.87990577903506055E+05
             4.87992625615875353E+05   4.87994645828517212E+05   4.87996637588058307E+05   4.87998599808417552E+05   4.88000532298869453E+05
             4.88002434766681632E+05   4.88004306900496769E+05   4.88006148144936422E+05   4.88007957955619902E+05   4.88009735766050231E+05
             4.88011480604818964E+05   4.88013191509044264E+05   4.88014867444009229E+05   4.88016508805988880E+05   4.88018115951248386E+05
             4.88019689211035497E+05   4.88021228588483762E+05   4.88022734089944162E+05   4.88024205714593001E+05   4.88025643095970154E+05
             4.88027045886671520E+05   4.88028413704284700E+05   4.88029747595832043E+05   4.88031048596881621E+05   4.88032317714524397E+05
             4.88033555628031434E+05   4.88034763007837406E+05   4.88035940533849353E+05   4.88037088673601800E+05   4.88038207920380461E+05
             4.88039298727207235E+05   4.88040362324464484E+05   4.88041399914762063E+05   4.88042412674944033E+05   4.88043401568216388E+05
             4.88044367541967367E+05   4.88045311561544717E+05   4.88046234570626344E+05   4.88047137538341922E+05   4.88048021389689529E+05
             4.88048886980714451E+05   4.88049735128628439E+05   4.88050566632936883E+05   4.88051382249223592E+05   4.88052182719311211E+05
             4.88052968803432595E+05   4.88053741392647382E+05   4.88054501399289235E+05   4.88055249726173875E+05   4.88055986635023786E+05
             4.88056712380417739E+05   4.88057427210086375E+05   4.88058131480844633E+05   4.88058825544222724E+05   4.88059509765629948E+05
             4.88060184721389436E+05   4.88060851002944459E+05   4.88061509246190952E+05   4.88062159251914942E+05   4.88062800866870151E+05
             4.88063433940481511E+05   4.88064058521713654E+05   4.88064674663149577E+05   4.88065282426655642E+05   4.88065882101383002E+05
             4.88066473986670375E+05   4.88067058464645757E+05   4.88067635114582023E+05   4.88068203599905944E+05   4.88068763591992378E+05
             4.88069314989083388E+05   4.88069857698307256E+05   4.88070391633843305E+05   4.88070916924874356E+05   4.88071433708631666E+05
             4.88071942220663535E+05   4.88072441988347506E+05   4.88072932638816710E+05   4.88073413808295503E+05   4.88073885354159807E+05
             4.88074347143985506E+05   4.88074799051211448E+05   4.88075241150566551E+05   4.88075673523849575E+05   4.88076096342149598E+05
             4.88076509120376839E+05   4.88076911464300065E+05   4.88077302997180086E+05   4.88077683577363903E+05   4.88078053082004015E+05
             4.88078411367954395E+05   4.88078758355009079E+05   4.88079093944100779E+05   4.88079418191984238E+05   4.88079730973126832E+05
             4.88080032319487364E+05   4.88080321962887363E+05   4.88080598554285942E+05   4.88080860446168808E+05   4.88081107156889222E+05
             4.88081342968442186E+05   4.88081573330124957E+05
 ETA=    9   4.87711013560566178E+05   4.87714716807839402E+05   4.87718413139961893E+05   4.87722095643395034E+05   4.87725759000385355E+05
             4.87729403016706696E+05   4.87733029101455933E+05   4.87736638387300482E+05   4.87740231170181651E+05   4.87743807479871553E+05
             4.87747367387687555E+05   4.87750911209170590E+05   4.87754439311872993E+05   4.87757952018714044E+05   4.87761449495173176E+05
             4.87764931873009598E+05   4.87768399294355419E+05   4.87771851915413572E+05   4.87775289913611661E+05   4.87778713451079500E+05
             4.87782122558789677E+05   4.87785517263056186E+05   4.87788897508533089E+05   4.87792263334405259E+05   4.87795614708510286E+05
             4.87798951575335057E+05   4.87802273783559503E+05   4.87805581168220029E+05   4.87808873569996271E+05   4.87812150841395254E+05
             4.87815412849770102E+05   4.87818659515054722E+05   4.87821890942523547E+05   4.87825107298934832E+05   4.87828308735186176E+05
             4.87831495413322002E+05   4.87834667488033418E+05   4.87837825118700915E+05   4.87840968546845368E+05   4.87844098026961030E+05
             4.87847213813280861E+05   4.87850315804489714E+05   4.87853403906876047E+05   4.87856478022743599E+05   4.87859538148287218E+05
             4.87862584283605393E+05   4.87865616425148735E+05   4.87868634628668136E+05   4.87871638954081631E+05   4.87874629476219881E+05
             4.87877606024383625E+05   4.87880568450141582E+05   4.87883516606370627E+05   4.87886450432815589E+05   4.87889369878253608E+05
             4.87892274882406171E+05   4.87895165384221473E+05   4.87898041321522731E+05   4.87900902617130545E+05   4.87903749093036808E+05
             4.87906580563787313E+05   4.87909396845103533E+05   4.87912197786638746E+05   4.87914983247562661E+05   4.87917753076589375E+05
             4.87920507054669724E+05   4.87923244961213961E+05   4.87925966537579370E+05   4.87928671653384634E+05   4.87931360148947861E+05
             4.87934031864108169E+05   4.87936686607642099E+05   4.87939324197905313E+05   4.87941944443818298E+05   4.87944547027498716E+05
             4.87947131632732693E+05   4.87949697879160754E+05   4.87952245698630169E+05   4.87954774970376107E+05   4.87957285570860957E+05
             4.87959777292854968E+05   4.87962249939733825E+05   4.87964703304708062E+05   4.87967136998670292E+05   4.87969550637426844E+05
             4.87971943722610944E+05   4.87974316134743800E+05   4.87976667656915088E+05   4.87978998066912696E+05   4.87981307021079178E+05
             4.87983594189293915E+05   4.87985859225061431E+05   4.87988101522225887E+05   4.87990320479741495E+05   4.87992515326339577E+05
             4.87994685796828533E+05   4.87996831480513676E+05   4.87998951956369798E+05   4.88001046630136552E+05   4.88003114923157264E+05
             4.88005156232552836E+05   4.88007169597871951E+05   4.88009154063370253E+05   4.88011108514158579E+05   4.88013032817881263E+05
             4.88014926715403562E+05   4.88016789927101519E+05   4.88018621917854878E+05   4.88020422163011739E+05   4.88022190112973447E+05
             4.88023924805430870E+05   4.88025625285237969E+05   4.88027290501893032E+05   4.88028920903909137E+05   4.88030516877114307E+05
             4.88032078775103553E+05   4.88033606625191926E+05   4.88035100451175531E+05   4.88036560261978535E+05   4.88037985708276625E+05
             4.88039376452631666E+05   4.88040732104142895E+05   4.88042053747140686E+05   4.88043342436089821E+05   4.88044599187401822E+05
             4.88045824699971767E+05   4.88047019654204953E+05   4.88048184730425768E+05   4.88049320410436369E+05   4.88050427192156145E+05
             4.88051505519459432E+05   4.88052556646801590E+05   4.88053581786804716E+05   4.88054582116704842E+05   4.88055558612979657E+05
             4.88056512226473016E+05   4.88057443916687393E+05   4.88058354635342548E+05   4.88059245350081823E+05   4.88060116973742202E+05
             4.88060970380829007E+05   4.88061806396063534E+05   4.88062625817746564E+05   4.88063429412315192E+05   4.88064217923569493E+05
             4.88064992105140700E+05   4.88065752853480342E+05   4.88066501077553316E+05   4.88067237667874608E+05   4.88067962904033368E+05
             4.88068677049322228E+05   4.88069380352010077E+05   4.88070073180268868E+05   4.88070755888631043E+05   4.88071428837374784E+05
             4.88072092609338753E+05   4.88072747794180585E+05   4.88073395018397889E+05   4.88074034098648292E+05   4.88074664889730338E+05
             4.88075287241294398E+05   4.88075901212876022E+05   4.88076506859577377E+05   4.88077104238110303E+05   4.88077693644003710E+05
             4.88078275375084660E+05   4.88078849805824400E+05   4.88079416527309513E+05   4.88079975208390970E+05   4.88080525518630806E+05
             4.88081067364465503E+05   4.88081600653719099E+05   4.88082125294114114E+05   4.88082641418660758E+05   4.88083149161014066E+05
             4.88083648747433559E+05   4.88084139713112556E+05   4.88084621687046892E+05   4.88085094301295467E+05   4.88085557417091622E+05
             4.88086010899615649E+05   4.88086454614055052E+05   4.88086888632476446E+05   4.88087313027929398E+05   4.88087727957029652E+05
             4.88088132944424928E+05   4.88088527599695488E+05   4.88088911545049283E+05   4.88089284641932347E+05   4.88089646765580808E+05
             4.88089997765595501E+05   4.88090337557350576E+05   4.88090666031862318E+05   4.88090983226926241E+05   4.88091289023713558E+05
             4.88091583451730141E+05   4.88091866236107948E+05   4.88092136018291756E+05   4.88092391136960883E+05   4.88092631096987228E+05
             4.88092860173201130E+05   4.88093083807956777E+05
 ETA=   10   4.87723145568961569E+05   4.87726848025957239E+05   4.87730543763461523E+05   4.87734226061983383E+05   4.87737889544240432E+05
             4.87741534201787203E+05   4.87745161368386878E+05   4.87748772152768972E+05   4.87752366763526981E+05   4.87755945184220269E+05
             4.87759507454853039E+05   4.87763053841208457E+05   4.87766584665514471E+05   4.87770100216678111E+05   4.87773600650322798E+05
             4.87777086088751326E+05   4.87780556662952178E+05   4.87784012538658571E+05   4.87787453890289878E+05   4.87790880868298933E+05
             4.87794293527272763E+05   4.87797691897832090E+05   4.87801075998681597E+05   4.87804445800862683E+05   4.87807801263500995E+05
             4.87811142324864108E+05   4.87814468839787645E+05   4.87817780642249621E+05   4.87821077572453883E+05   4.87824359495509067E+05
             4.87827626282749989E+05   4.87830877853827842E+05   4.87834114321659494E+05   4.87837335847478127E+05   4.87840542591465812E+05
             4.87843734709599812E+05   4.87846912356806279E+05   4.87850075705293799E+05   4.87853224996400240E+05   4.87856360488746024E+05
             4.87859482380478468E+05   4.87862590627853118E+05   4.87865685126652359E+05   4.87868765789112542E+05   4.87871832593285129E+05
             4.87874885533675435E+05   4.87877924614932446E+05   4.87880949882279907E+05   4.87883961391085468E+05   4.87886959160393570E+05
             4.87889943063956918E+05   4.87892912939205475E+05   4.87895868640237837E+05   4.87898810087827966E+05   4.87901737219418574E+05
             4.87904649970166793E+05   4.87907548266085971E+05   4.87910432030903583E+05   4.87913301166819350E+05   4.87916155489920639E+05
             4.87918994794766651E+05   4.87921818883318687E+05   4.87924627587145369E+05   4.87927420745217241E+05   4.87930198181853513E+05
             4.87932959662768175E+05   4.87935704939024057E+05   4.87938433773139841E+05   4.87941145973458246E+05   4.87943841359777725E+05
             4.87946519747390004E+05   4.87949180933560361E+05   4.87951824711046938E+05   4.87954450847984175E+05   4.87957059014010592E+05
             4.87959648854140833E+05   4.87962220050690987E+05   4.87964772435182822E+05   4.87967305876439787E+05   4.87969820228961762E+05
             4.87972315289954597E+05   4.87974790842300630E+05   4.87977246634879790E+05   4.87979682280562702E+05   4.87982097358217055E+05
             4.87984491481729725E+05   4.87986864405062457E+05   4.87989215917195659E+05   4.87991545786051836E+05   4.87993853695321770E+05
             4.87996139307638165E+05   4.87998402237458795E+05   4.88000641906541714E+05   4.88002857688470162E+05   4.88005048995769932E+05
             4.88007215396738378E+05   4.88009356498615700E+05   4.88011471878258919E+05   4.88013560990993283E+05   4.88015623261761037E+05
             4.88017658049785765E+05   4.88019664451416756E+05   4.88021641497284640E+05   4.88023588340127608E+05   4.88025504621113825E+05
             4.88027390103519021E+05   4.88029244504051108E+05   4.88031067353147489E+05   4.88032858134677692E+05   4.88034616258689784E+05
             4.88036340839944722E+05   4.88038030919381825E+05   4.88039685765259317E+05   4.88041305555111670E+05   4.88042890693792200E+05
             4.88044441523975460E+05   4.88045958139621129E+05   4.88047440572510008E+05   4.88048888793088729E+05   4.88050302526466723E+05
             4.88051681436419720E+05   4.88053025420441176E+05   4.88054335310897965E+05   4.88055612173874921E+05   4.88056857011866057E+05
             4.88058070573000994E+05   4.88059253541818587E+05   4.88060406571746629E+05   4.88061530191770464E+05   4.88062624899764429E+05
             4.88063691313792311E+05   4.88064730532674643E+05   4.88065743775421404E+05   4.88066732216480537E+05   4.88067696852052992E+05
             4.88068638633777970E+05   4.88069558515411918E+05   4.88070457459180849E+05   4.88071336429427727E+05   4.88072196368248493E+05
             4.88073038128749933E+05   4.88073862541791750E+05   4.88074670423889824E+05   4.88075462534186023E+05   4.88076239617478743E+05
             4.88077002445267863E+05   4.88077751895859721E+05   4.88078488874262373E+05   4.88079214179911301E+05   4.88079928189953789E+05
             4.88080631175964663E+05   4.88081323423787428E+05   4.88082005276340293E+05   4.88082677090810321E+05   4.88083339262795518E+05
             4.88083992341539008E+05   4.88084636914694856E+05   4.88085273449094384E+05   4.88085901928276988E+05   4.88086522214959434E+05
             4.88087134204317234E+05   4.88087737921362102E+05   4.88088333423564734E+05   4.88088920808184484E+05   4.88089500331635412E+05
             4.88090072290120181E+05   4.88090636876174598E+05   4.88091193867667404E+05   4.88091742938800191E+05   4.88092283802805643E+05
             4.88092816329039808E+05   4.88093340425889532E+05   4.88093856038670114E+05   4.88094363260410435E+05   4.88094862221067713E+05
             4.88095352967389801E+05   4.88095835213286278E+05   4.88096308589457534E+05   4.88096772765248083E+05   4.88097227564580040E+05
             4.88097672850020113E+05   4.88098108517723856E+05   4.88098534598204424E+05   4.88098951155563933E+05   4.88099358178736409E+05
             4.88099755355983565E+05   4.88100142300398846E+05   4.88100518668388133E+05   4.88100884289607580E+05   4.88101239037025487E+05
             4.88101582784906612E+05   4.88101915412700502E+05   4.88102236801152816E+05   4.88102546855323191E+05   4.88102845577526430E+05
             4.88103132994391141E+05   4.88103408848814957E+05   4.88103671748771099E+05   4.88103920018501871E+05   4.88104153167430195E+05
             4.88104375445703103E+05   4.88104592288648186E+05
 ETA=   11   4.87735275396886980E+05   4.87738977032289840E+05   4.87742672062724247E+05   4.87746353884888638E+05   4.87750017239825742E+05
             4.87753662144701346E+05   4.87757289967743272E+05   4.87760901910773362E+05   4.87764498045585176E+05   4.87768078287228360E+05
             4.87771642642932886E+05   4.87775191300031554E+05   4.87778724547918653E+05   4.87782242619695491E+05   4.87785745684563881E+05
             4.87789233866038208E+05   4.87792707281335257E+05   4.87796166095021181E+05   4.87799610475866008E+05   4.87803040559085202E+05
             4.87806456438043329E+05   4.87809858182731550E+05   4.87813245822095603E+05   4.87816619317763078E+05   4.87819978600170580E+05
             4.87823323579834949E+05   4.87826654113974888E+05   4.87829970049211290E+05   4.87833271238410438E+05   4.87836557537965535E+05
             4.87839828819311224E+05   4.87843084994748991E+05   4.87846326184719452E+05   4.87849552558930300E+05   4.87852764307059813E+05
             4.87855961566492333E+05   4.87859144502683775E+05   4.87862313318081957E+05   4.87865468202341464E+05   4.87868609389862919E+05
             4.87871737060390529E+05   4.87874851185635431E+05   4.87877951690156944E+05   4.87881038540548820E+05   4.87884111677749956E+05
             4.87887171092108591E+05   4.87890216807501216E+05   4.87893248813910584E+05   4.87896267142110912E+05   4.87899271789167367E+05
             4.87902262637918699E+05   4.87905239544771379E+05   4.87908202396141831E+05   4.87911151077760907E+05   4.87914085512753460E+05
             4.87917005632932181E+05   4.87919911335971090E+05   4.87922802535816794E+05   4.87925679120678280E+05   4.87928540893599158E+05
             4.87931387639861729E+05   4.87934219144460920E+05   4.87937035214318079E+05   4.87939835664479819E+05   4.87942620282057964E+05
             4.87945388842542714E+05   4.87948141102539259E+05   4.87950876821355603E+05   4.87953595769439882E+05   4.87956297729884798E+05
             4.87958982445660629E+05   4.87961649711458245E+05   4.87964299292640877E+05   4.87966930887481838E+05   4.87969544218463474E+05
             4.87972138952894427E+05   4.87974714785498509E+05   4.87977271495202789E+05   4.87979808901677374E+05   4.87982326748043241E+05
             4.87984824859012384E+05   4.87987302997447434E+05   4.87989760825579113E+05   4.87992198055310524E+05   4.87994614314262639E+05
             4.87997009252618416E+05   4.87999382569239475E+05   4.88001734003844787E+05   4.88004063193369773E+05   4.88006369876446202E+05
             4.88008653709304985E+05   4.88010914218771621E+05   4.88013150976224395E+05   4.88015363446324598E+05   4.88017551107549749E+05
             4.88019713472320931E+05   4.88021850091913715E+05   4.88023960393276648E+05   4.88026043903840648E+05   4.88028100054078735E+05
             4.88030128118714085E+05   4.88032127392792725E+05   4.88034097045173519E+05   4.88036036319665262E+05   4.88037944796335476E+05
             4.88039822161509772E+05   4.88041667958185892E+05   4.88043481797810062E+05   4.88045263180436683E+05   4.88047011440323724E+05
             4.88048725916870113E+05   4.88050405815514561E+05   4.88052050504478975E+05   4.88053660094827821E+05   4.88055234891800093E+05
             4.88056775055341655E+05   4.88058280757394270E+05   4.88059752053515287E+05   4.88061188858138572E+05   4.88062591096486198E+05
             4.88063958578445367E+05   4.88065291284426523E+05   4.88066589985997998E+05   4.88067855648496246E+05   4.88069089122258767E+05
             4.88070291212853568E+05   4.88071462630030699E+05   4.88072604002305248E+05   4.88073715980070643E+05   4.88074799147783720E+05
             4.88075854167009704E+05   4.88076882100171060E+05   4.88077884099287272E+05   4.88078861260819889E+05   4.88079814603900129E+05
             4.88080745101512061E+05   4.88081653716830246E+05   4.88082541433499428E+05   4.88083409232271428E+05   4.88084258054951963E+05
             4.88085088754502940E+05   4.88085902150036069E+05   4.88086699071193114E+05   4.88087480265073827E+05   4.88088246493085986E+05
             4.88088998566610797E+05   4.88089737300743116E+05   4.88090463563321158E+05   4.88091178120817232E+05   4.88091881384683889E+05
             4.88092573666877346E+05   4.88093255341331533E+05   4.88093926713341731E+05   4.88094588151808945E+05   4.88095240110813582E+05
             4.88095883026213560E+05   4.88096517420389690E+05   4.88097143710194563E+05   4.88097761933632370E+05   4.88098372024090437E+05
             4.88098974005155440E+05   4.88099567848726583E+05   4.88100153617962147E+05   4.88100731472379179E+05   4.88101301536856976E+05
             4.88101864033648337E+05   4.88102419099723338E+05   4.88102966572468285E+05   4.88103506204768200E+05   4.88104037845784158E+05
             4.88104561307202443E+05   4.88105076498014387E+05   4.88105583420020470E+05   4.88106082036029780E+05   4.88106572402722843E+05
             4.88107054511027469E+05   4.88107528129906859E+05   4.88107992963495257E+05   4.88108448805400520E+05   4.88108895423466980E+05
             4.88109332676179416E+05   4.88109760504570848E+05   4.88110178818621440E+05   4.88110587612070900E+05   4.88110986819442012E+05
             4.88111376180079009E+05   4.88111755375232664E+05   4.88112124170047406E+05   4.88112482346160104E+05   4.88112829770442215E+05
             4.88113166351309221E+05   4.88113491871822102E+05   4.88113806158002466E+05   4.88114109072305961E+05   4.88114400650926633E+05
             4.88114680967850960E+05   4.88114949834731815E+05   4.88115205809880223E+05   4.88115447190950101E+05   4.88115673486878397E+05
             4.88115888917457662E+05   4.88116098915076815E+05
 ETA=   12   4.87747403323217703E+05   4.87751103916433989E+05   4.87754798020036833E+05   4.87758479145963560E+05   4.87762142076766584E+05
             4.87765786934639327E+05   4.87769415118727717E+05   4.87773027881331684E+05   4.87776625203238800E+05   4.87780206927734485E+05
             4.87783773012680816E+05   4.87787323586817132E+05   4.87790858903051005E+05   4.87794379145955027E+05   4.87797884494547674E+05
             4.87801375069916598E+05   4.87804850985170691E+05   4.87808312397549103E+05   4.87811759466668416E+05   4.87815192322560004E+05
             4.87818611090708000E+05   4.87822015877020371E+05   4.87825406738603895E+05   4.87828783613106585E+05   4.87832146399057645E+05
             4.87835494983886019E+05   4.87838829225748079E+05   4.87842148980893369E+05   4.87845454113756015E+05   4.87848744476129359E+05
             4.87852019936681143E+05   4.87855280392514600E+05   4.87858525982318155E+05   4.87861756881523295E+05   4.87864973298217286E+05
             4.87868175364999857E+05   4.87871363255165110E+05   4.87874537186136818E+05   4.87877697313780780E+05   4.87880843845785595E+05
             4.87883976917242515E+05   4.87887096544083266E+05   4.87890202677167836E+05   4.87893295319036057E+05   4.87896374394391605E+05
             4.87899439886958920E+05   4.87902491822394484E+05   4.87905530155424902E+05   4.87908554889921623E+05   4.87911565981086635E+05
             4.87914563343173650E+05   4.87917546849129314E+05   4.87920516404536436E+05   4.87923471875676711E+05   4.87926413168844767E+05
             4.87929340202808788E+05   4.87932252859245695E+05   4.87935151039822376E+05   4.87938034616136865E+05   4.87940903383448836E+05
             4.87943757115027693E+05   4.87946595577955770E+05   4.87949418558210891E+05   4.87952225843979919E+05   4.87955017190113314E+05
             4.87957792380007624E+05   4.87960551172670966E+05   4.87963293343540980E+05   4.87966018609022896E+05   4.87968726712023199E+05
             4.87971417339618085E+05   4.87974090270982473E+05   4.87976745240306424E+05   4.87979381898514577E+05   4.87982000002287328E+05
             4.87984599237028975E+05   4.87987179349801794E+05   4.87989740031187248E+05   4.87992281047166325E+05   4.87994802062870120E+05
             4.87997302901844494E+05   4.87999783302028431E+05   4.88002242875622411E+05   4.88004681402062182E+05   4.88007098552159325E+05
             4.88009494067930966E+05   4.88011867543419590E+05   4.88014218663236708E+05   4.88016546977777965E+05   4.88018852242794586E+05
             4.88021134101693169E+05   4.88023392037251033E+05   4.88025625733993074E+05   4.88027834740145539E+05   4.88030018669605022E+05
             4.88032176917718200E+05   4.88034308972064522E+05   4.88036414158765576E+05   4.88038492037357239E+05   4.88040542035403138E+05
             4.88042563389156712E+05   4.88044555555794039E+05   4.88046517832514364E+05   4.88048449637745798E+05   4.88050350417495938E+05
             4.88052219771437405E+05   4.88054057118083816E+05   4.88055862111395923E+05   4.88057634257761179E+05   4.88059372860928590E+05
             4.88061077449944627E+05   4.88062747383939393E+05   4.88064382220040890E+05   4.88065981924443273E+05   4.88067546693023061E+05
             4.88069076545924181E+05   4.88070571699873195E+05   4.88072032225290721E+05   4.88073458017888654E+05   4.88074849173958297E+05
             4.88076205640752276E+05   4.88077527557279274E+05   4.88078815566185513E+05   4.88080070524960931E+05   4.88081293157968204E+05
             4.88082484308488201E+05   4.88083644705587998E+05   4.88084774970642990E+05   4.88085875862502202E+05   4.88086948047151207E+05
             4.88087992274073826E+05   4.88089009528798691E+05   4.88090000892652315E+05   4.88090967385075230E+05   4.88091910050379112E+05
             4.88092829880020232E+05   4.88093727838531544E+05   4.88094604941273748E+05   4.88095462183293712E+05   4.88096300513088412E+05
             4.88097120778114651E+05   4.88097923784239683E+05   4.88098710349206172E+05   4.88099481234422012E+05   4.88100237216770009E+05
             4.88100979115255992E+05   4.88101707715030294E+05   4.88102423846043996E+05   4.88103128217543592E+05   4.88103821300212177E+05
             4.88104503445765004E+05   4.88105175072742684E+05   4.88105836492858245E+05   4.88106488086230063E+05   4.88107130318010226E+05
             4.88107763558645442E+05   4.88108388264917303E+05   4.88109004760717798E+05   4.88109613181862340E+05   4.88110213532004273E+05
             4.88110805910884752E+05   4.88111390289890114E+05   4.88111966737500508E+05   4.88112535423027468E+05   4.88113096392704465E+05
             4.88113649794524885E+05   4.88114195660879603E+05   4.88114733938002260E+05   4.88115264457067242E+05   4.88115787151106750E+05
             4.88116301826536306E+05   4.88116808392556384E+05   4.88117306857220421E+05   4.88117797103758494E+05   4.88118279115191195E+05
             4.88118752779967734E+05   4.88119217969120597E+05   4.88119674459784408E+05   4.88120122122639441E+05   4.88120560717046726E+05
             4.88120990096958296E+05   4.88121410203511710E+05   4.88121820871360716E+05   4.88122222023448267E+05   4.88122613500150619E+05
             4.88122995132036798E+05   4.88123366668053903E+05   4.88123727941823076E+05   4.88124078727686312E+05   4.88124418885930558E+05
             4.88124748321881518E+05   4.88125066759939655E+05   4.88125373970902117E+05   4.88125669745914172E+05   4.88125954184240720E+05
             4.88126227406731283E+05   4.88126489264883043E+05   4.88126738296804193E+05   4.88126972772875568E+05   4.88127192178679223E+05
             4.88127400727016502E+05   4.88127603847172810E+05
 ETA=   13   4.87759529692908982E+05   4.87763228924747731E+05   4.87766921783008322E+05   4.87770601894112653E+05   4.87774264184568077E+05
             4.87777908781223814E+05   4.87781537111014361E+05   4.87785150324494811E+05   4.87788748466701480E+05   4.87792331306291337E+05
             4.87795898685976746E+05   4.87799450744693051E+05   4.87802987695431279E+05   4.87806509734880761E+05   4.87810016994524340E+05
             4.87813509589543275E+05   4.87816987640435633E+05   4.87820451288967335E+05   4.87823900682221516E+05   4.87827335965856269E+05
             4.87830757279831218E+05   4.87834164762681350E+05   4.87837558507110109E+05   4.87840938422496081E+05   4.87844304372386483E+05
             4.87847656220226083E+05   4.87850993829050683E+05   4.87854317061793641E+05   4.87857625781415903E+05   4.87860919850987964E+05
             4.87864199133607675E+05   4.87867463544928469E+05   4.87870713210825343E+05   4.87873948309728876E+05   4.87877169020071626E+05
             4.87880375520293892E+05   4.87883567988838127E+05   4.87886746604146087E+05   4.87889911544657603E+05   4.87893062988811755E+05
             4.87896201081075240E+05   4.87899325830024725E+05   4.87902437210264266E+05   4.87905535196397977E+05   4.87908619763029856E+05
             4.87911690884763724E+05   4.87914748536203464E+05   4.87917792691953073E+05   4.87920823326616373E+05   4.87923840400184505E+05
             4.87926843814196240E+05   4.87929833455577726E+05   4.87932809211254760E+05   4.87935770968153316E+05   4.87938718613199424E+05
             4.87941652033318998E+05   4.87944571115438070E+05   4.87947475746482494E+05   4.87950365791965858E+05   4.87953241031751735E+05
             4.87956101224291371E+05   4.87958946128036012E+05   4.87961775501436729E+05   4.87964589102944883E+05   4.87967386691011663E+05
             4.87970168024088140E+05   4.87972932860625500E+05   4.87975680949208909E+05   4.87978411998958909E+05   4.87981125709129556E+05
             4.87983821778975311E+05   4.87986499907750345E+05   4.87989159794709121E+05   4.87991801139105810E+05   4.87994423640194756E+05
             4.87997026997230190E+05   4.87999610910828982E+05   4.88002175087058684E+05   4.88004719233349140E+05   4.88007243057130254E+05
             4.88009746265832102E+05   4.88012228566884645E+05   4.88014689667717728E+05   4.88017129275761428E+05   4.88019547098445590E+05
             4.88021942829007108E+05   4.88024316103909630E+05   4.88026666545424145E+05   4.88028993775821116E+05   4.88031297417371185E+05
             4.88033577092345105E+05   4.88035832423013460E+05   4.88038063031647005E+05   4.88040268540516321E+05   4.88042448537148128E+05
             4.88044602470093698E+05   4.88046729753160384E+05   4.88048829800155421E+05   4.88050902024886047E+05   4.88052945841159672E+05
             4.88054960662783531E+05   4.88056945903564803E+05   4.88058900977311016E+05   4.88060825312416244E+05   4.88062718395622564E+05
             4.88064579728258890E+05   4.88066408811654022E+05   4.88068205147137051E+05   4.88069968236036773E+05   4.88071697579682106E+05
             4.88073392679402023E+05   4.88075053036525380E+05   4.88076678248180426E+05   4.88078268294692913E+05   4.88079823252187925E+05
             4.88081343196790433E+05   4.88082828204625577E+05   4.88084278351818270E+05   4.88085693714493653E+05   4.88087074368776637E+05
             4.88088420390792424E+05   4.88089731967794709E+05   4.88091009731552273E+05   4.88092254424962681E+05   4.88093466790923325E+05
             4.88094647572331771E+05   4.88095797512085526E+05   4.88096917353082041E+05   4.88098007838218822E+05   4.88099069710393378E+05
             4.88100103756597324E+05   4.88101110940198880E+05   4.88102092268660199E+05   4.88103048749443667E+05   4.88103981390011497E+05
             4.88104891197826015E+05   4.88105779180349491E+05   4.88106646345044195E+05   4.88107493699372455E+05   4.88108322214791668E+05
             4.88109132718740031E+05   4.88109926002650929E+05   4.88110702857957687E+05   4.88111464076093805E+05   4.88112210448492435E+05
             4.88112942766587017E+05   4.88113661821811053E+05   4.88114368405597750E+05   4.88115063242638193E+05   4.88115746790654201E+05
             4.88116419440625468E+05   4.88117081583531457E+05   4.88117733610351745E+05   4.88118375912065909E+05   4.88119008879653527E+05
             4.88119632904094004E+05   4.88120248376367148E+05   4.88120855634561274E+05   4.88121454805200861E+05   4.88122045961919357E+05
             4.88122629178350093E+05   4.88123204528126225E+05   4.88123772084880911E+05   4.88124331922247366E+05   4.88124884113859618E+05
             4.88125428733351699E+05   4.88125965826961794E+05   4.88126495331343263E+05   4.88127017155753740E+05   4.88127531209452834E+05
             4.88128037401709473E+05   4.88128535641794850E+05   4.88129025838971662E+05   4.88129507902468264E+05   4.88129981741504860E+05
             4.88130447255419451E+05   4.88130904304022726E+05   4.88131352737243520E+05   4.88131792404891807E+05   4.88132223156302818E+05
             4.88132644840692694E+05   4.88133057307721116E+05   4.88133460408819898E+05   4.88133853995864047E+05   4.88134237914804893E+05
             4.88134611987898650E+05   4.88134976031478145E+05   4.88135329868047440E+05   4.88135673344797047E+05   4.88136006315088656E+05
             4.88136328609251825E+05   4.88136639965485956E+05   4.88136940098957741E+05   4.88137228800195095E+05   4.88137506161169615E+05
             4.88137772349213948E+05   4.88138027210859174E+05   4.88138269309430325E+05   4.88138496887451038E+05   4.88138709384692251E+05
             4.88138911029915384E+05   4.88139107249129564E+05
 ETA=   14   4.87771654755931522E+05   4.87775352145616431E+05   4.87779043350446154E+05   4.87782722187111794E+05   4.87786383676523576E+05
             4.87790027904596005E+05   4.87793656167437846E+05   4.87797269625056884E+05   4.87800868175312062E+05   4.87804451588823460E+05
             4.87808019766538928E+05   4.87811572803364601E+05   4.87815110933728225E+05   4.87818634331747831E+05   4.87822143122008885E+05
             4.87825637378774292E+05   4.87829117182847287E+05   4.87832582677617203E+05   4.87836034023012326E+05   4.87839471365561069E+05
             4.87842894872140023E+05   4.87846304705842573E+05   4.87849700977442961E+05   4.87853083570309973E+05   4.87856452324710204E+05
             4.87859807085981767E+05   4.87863147698571556E+05   4.87866474020793918E+05   4.87869785930332087E+05   4.87873083301400708E+05
             4.87876366035910789E+05   4.87879634061968361E+05   4.87882887484873238E+05   4.87886126443998539E+05   4.87889351123430359E+05
             4.87892561649286654E+05   4.87895758200065291E+05   4.87898941006060340E+05   4.87902110238615307E+05   4.87905266128214251E+05
             4.87908408829600550E+05   4.87911538334238634E+05   4.87914654564950615E+05   4.87917757504267269E+05   4.87920847065518610E+05
             4.87923923228749074E+05   4.87926986021648336E+05   4.87930035402321373E+05   4.87933071383468399E+05   4.87936093927812646E+05
             4.87939102920974197E+05   4.87942098205656162E+05   4.87945079662909498E+05   4.87948047142076830E+05   4.87951000538041524E+05
             4.87953939759618952E+05   4.87956864673891629E+05   4.87959775169361557E+05   4.87962671105090063E+05   4.87965552241183992E+05
             4.87968418316425406E+05   4.87971269064888009E+05   4.87974104249264929E+05   4.87976923636115622E+05   4.87979726949949400E+05
             4.87982513924252591E+05   4.87985284259859473E+05   4.87988037679268746E+05   4.87990773877232219E+05   4.87993492580956838E+05
             4.87996193453078216E+05   4.87998876251682814E+05   4.88001540681915474E+05   4.88004186344409187E+05   4.88006812913180504E+05
             4.88009419970759423E+05   4.88012007172778656E+05   4.88014574227834528E+05   4.88017120932780905E+05   4.88019646962861065E+05
             4.88022152139186161E+05   4.88024636177754670E+05   4.88027098639113421E+05   4.88029539218457066E+05   4.88031957473924616E+05
             4.88034353052994644E+05   4.88036725611993868E+05   4.88039074917379359E+05   4.88041400574329775E+05   4.88043702362136624E+05
             4.88045979921788094E+05   4.88048232706407260E+05   4.88050460353459232E+05   4.88052662337837333E+05   4.88054838223575440E+05
             4.88056987481703749E+05   4.88059109699624300E+05   4.88061204280521953E+05   4.88063270821730956E+05   4.88065308766255795E+05
             4.88067317351382808E+05   4.88069296039282752E+05   4.88071244118099043E+05   4.88073161023667606E+05   4.88075046251196589E+05
             4.88076899475826591E+05   4.88078720181097626E+05   4.88080508056464430E+05   4.88082262633070990E+05   4.88083983240699919E+05
             4.88085669454536343E+05   4.88087320680981444E+05   4.88088936548826168E+05   4.88090517024370725E+05   4.88092062327373133E+05
             4.88093572504963784E+05   4.88095047794090875E+05   4.88096488287973159E+05   4.88097893915648339E+05   4.88099264829957683E+05
             4.88100601044928131E+05   4.88101902786513034E+05   4.88103170654750196E+05   4.88104405484178336E+05   4.88105607986437622E+05
             4.88106779006306489E+05   4.88107919284256059E+05   4.88109029463835352E+05   4.88110110342901549E+05   4.88111162636994151E+05
             4.88112187162916875E+05   4.88113184848977602E+05   4.88114156736837700E+05   4.88115103816009534E+05   4.88116027123351989E+05
             4.88116927652528451E+05   4.88117806376800814E+05   4.88118664325980877E+05   4.88119502515948960E+05   4.88120321933909610E+05
             4.88121123382373014E+05   4.88121907640086021E+05   4.88122675503560225E+05   4.88123427730032883E+05   4.88124165098069760E+05
             4.88124888429073850E+05   4.88125598510881828E+05   4.88126296176723728E+05   4.88126982157344522E+05   4.88127656900679809E+05
             4.88128320753916167E+05   4.88128974133241863E+05   4.88129617353137466E+05   4.88130250798594090E+05   4.88130874938336085E+05
             4.88131490144355106E+05   4.88132096873600560E+05   4.88132695466970908E+05   4.88133286050608905E+05   4.88133868635379942E+05
             4.88134443327652873E+05   4.88135010105448251E+05   4.88135569043231721E+05   4.88136120314941334E+05   4.88136663967855275E+05
             4.88137200149639451E+05   4.88137728907212033E+05   4.88138250180228904E+05   4.88138763808233722E+05   4.88139269731600652E+05
             4.88139767761780764E+05   4.88140257811965304E+05   4.88140739892552432E+05   4.88141213883089542E+05   4.88141679761291714E+05
             4.88142137423135748E+05   4.88142586731968040E+05   4.88143027470166213E+05   4.88143459512039728E+05   4.88143882617878553E+05
[...]
             0.00000000000000000E+00   0.00000000000000000E+00   0.00000000000000000E+00   0.00000000000000000E+00   0.00000000000000000E+00
             0.00000000000000000E+00   0.00000000000000000E+00   0.00000000000000000E+00   0.00000000000000000E+00   0.00000000000000000E+00
             0.00000000000000000E+00   0.00000000000000000E+00   0.00000000000000000E+00   0.00000000000000000E+00   0.00000000000000000E+00
             0.00000000000000000E+00   0.00000000000000000E+00   0.00000000000000000E+00   0.00000000000000000E+00   0.00000000000000000E+00
             0.00000000000000000E+00   0.00000000000000000E+00   0.00000000000000000E+00   0.00000000000000000E+00   0.00000000000000000E+00
             0.00000000000000000E+00   0.00000000000000000E+00   0.00000000000000000E+00   0.00000000000000000E+00   0.00000000000000000E+00
             0.00000000000000000E+00   0.00000000000000000E+00   0.00000000000000000E+00   0.00000000000000000E+00   0.00000000000000000E+00
             0.00000000000000000E+00   0.00000000000000000E+00   0.00000000000000000E+00   0.00000000000000000E+00   0.00000000000000000E+00
             0.00000000000000000E+00   0.00000000000000000E+00   0.00000000000000000E+00   0.00000000000000000E+00   0.00000000000000000E+00
             0.00000000000000000E+00   0.00000000000000000E+00   0.00000000000000000E+00   0.00000000000000000E+00   0.00000000000000000E+00
             0.00000000000000000E+00   0.00000000000000000E+00   0.00000000000000000E+00   0.00000000000000000E+00   0.00000000000000000E+00
             0.00000000000000000E+00   0.00000000000000000E+00   0.00000000000000000E+00   0.00000000000000000E+00   0.00000000000000000E+00
             0.00000000000000000E+00   0.00000000000000000E+00   0.00000000000000000E+00   0.00000000000000000E+00   0.00000000000000000E+00
             0.00000000000000000E+00   0.00000000000000000E+00   0.00000000000000000E+00   0.00000000000000000E+00   0.00000000000000000E+00
             0.00000000000000000E+00   0.00000000000000000E+00   0.00000000000000000E+00   0.00000000000000000E+00   0.00000000000000000E+00
             0.00000000000000000E+00   0.00000000000000000E+00   0.00000000000000000E+00   0.00000000000000000E+00   0.00000000000000000E+00
             0.00000000000000000E+00   0.00000000000000000E+00   0.00000000000000000E+00   0.00000000000000000E+00   0.00000000000000000E+00
             0.00000000000000000E+00   0.00000000000000000E+00   0.00000000000000000E+00   0.00000000000000000E+00   0.00000000000000000E+00
             0.00000000000000000E+00   0.00000000000000000E+00   0.00000000000000000E+00   0.00000000000000000E+00   0.00000000000000000E+00
             0.00000000000000000E+00   0.00000000000000000E+00
 ETA=  272   3.60922554490058869E+06   3.60920718618456786E+06   3.60918883794690156E+06   3.60917051064021466E+06   3.60915221193068288E+06
             3.60913393950747373E+06   3.60911568815751700E+06   3.60909745308668539E+06   3.60907923078261502E+06   3.60906101800414920E+06
             3.60904281143668434E+06   3.60902460730872815E+06   3.60900640163079975E+06   3.60898819039048674E+06   3.60896996964467457E+06
             3.60895173527275072E+06   3.60893348317539413E+06   3.60891520902545564E+06   3.60889690836647572E+06   3.60887857674618252E+06
             3.60886020962649537E+06   3.60884180233279476E+06   3.60882335180693166E+06   3.60880486179870414E+06   3.60878633754322072E+06
             3.60876778423838317E+06   3.60874920667479094E+06   3.60873060947478795E+06   3.60871199744157866E+06   3.60869337581114983E+06
             3.60867474986569583E+06   3.60865612378053926E+06   3.60863749616839923E+06   3.60861886439500935E+06   3.60860022600121144E+06
             3.60858157876193058E+06   3.60856292048106296E+06   3.60854424897652352E+06   3.60852556188421976E+06   3.60850685670028022E+06
             3.60848813152301917E+06   3.60846938726486452E+06   3.60845062528296374E+06   3.60843184696700051E+06   3.60841305353681464E+06
             3.60839424609899661E+06   3.60837542575242650E+06   3.60835659340175102E+06   3.60833774981062440E+06   3.60831889569575619E+06
             3.60830003260166524E+06   3.60828116189982696E+06   3.60826228492687456E+06   3.60824340265281126E+06   3.60822451589622442E+06
             3.60820562552115880E+06   3.60818673246756941E+06   3.60816783760809572E+06   3.60814894113008305E+06   3.60813004030744685E+06
             3.60811113161695423E+06   3.60809221154123219E+06   3.60807327639123145E+06   3.60805432238311134E+06   3.60803534581625508E+06
             3.60801634318065643E+06   3.60799731095805019E+06   3.60797824586270703E+06   3.60795914482298959E+06   3.60794000490937382E+06
             3.60792082317254134E+06   3.60790159633315820E+06   3.60788232099705888E+06   3.60786299419549108E+06   3.60784361443320615E+06
             3.60782418053729041E+06   3.60780469115131162E+06   3.60778514308937406E+06   3.60776553285833541E+06   3.60774586127726687E+06
             3.60772614597834228E+06   3.60770640881008375E+06   0.00000000000000000E+00   0.00000000000000000E+00   0.00000000000000000E+00
             0.00000000000000000E+00   0.00000000000000000E+00   0.00000000000000000E+00   0.00000000000000000E+00   0.00000000000000000E+00
             0.00000000000000000E+00   0.00000000000000000E+00   0.00000000000000000E+00   0.00000000000000000E+00   0.00000000000000000E+00
             0.00000000000000000E+00   0.00000000000000000E+00   0.00000000000000000E+00   0.00000000000000000E+00   0.00000000000000000E+00
             0.00000000000000000E+00   0.00000000000000000E+00   0.00000000000000000E+00   0.00000000000000000E+00   0.00000000000000000E+00
             0.00000000000000000E+00   0.00000000000000000E+00   0.00000000000000000E+00   0.00000000000000000E+00   0.00000000000000000E+00
             0.00000000000000000E+00   0.00000000000000000E+00   0.00000000000000000E+00   0.00000000000000000E+00   0.00000000000000000E+00
             0.00000000000000000E+00   0.00000000000000000E+00   0.00000000000000000E+00   0.00000000000000000E+00   0.00000000000000000E+00
             0.00000000000000000E+00   0.00000000000000000E+00   0.00000000000000000E+00   0.00000000000000000E+00   0.00000000000000000E+00
             0.00000000000000000E+00   0.00000000000000000E+00   0.00000000000000000E+00   0.00000000000000000E+00   0.00000000000000000E+00
             0.00000000000000000E+00   0.00000000000000000E+00   0.00000000000000000E+00   0.00000000000000000E+00   0.00000000000000000E+00
             0.00000000000000000E+00   0.00000000000000000E+00   0.00000000000000000E+00   0.00000000000000000E+00   0.00000000000000000E+00
             0.00000000000000000E+00   0.00000000000000000E+00   0.00000000000000000E+00   0.00000000000000000E+00   0.00000000000000000E+00
             0.00000000000000000E+00   0.00000000000000000E+00   0.00000000000000000E+00   0.00000000000000000E+00   0.00000000000000000E+00
             0.00000000000000000E+00   0.00000000000000000E+00   0.00000000000000000E+00   0.00000000000000000E+00   0.00000000000000000E+00
             0.00000000000000000E+00   0.00000000000000000E+00   0.00000000000000000E+00   0.00000000000000000E+00   0.00000000000000000E+00
             0.00000000000000000E+00   0.00000000000000000E+00   0.00000000000000000E+00   0.00000000000000000E+00   0.00000000000000000E+00
             0.00000000000000000E+00   0.00000000000000000E+00   0.00000000000000000E+00   0.00000000000000000E+00   0.00000000000000000E+00
             0.00000000000000000E+00   0.00000000000000000E+00   0.00000000000000000E+00   0.00000000000000000E+00   0.00000000000000000E+00
             0.00000000000000000E+00   0.00000000000000000E+00   0.00000000000000000E+00   0.00000000000000000E+00   0.00000000000000000E+00
             0.00000000000000000E+00   0.00000000000000000E+00   0.00000000000000000E+00   0.00000000000000000E+00   0.00000000000000000E+00
             0.00000000000000000E+00   0.00000000000000000E+00   0.00000000000000000E+00   0.00000000000000000E+00   0.00000000000000000E+00
             0.00000000000000000E+00   0.00000000000000000E+00   0.00000000000000000E+00   0.00000000000000000E+00   0.00000000000000000E+00
             0.00000000000000000E+00   0.00000000000000000E+00   0.00000000000000000E+00   0.00000000000000000E+00   0.00000000000000000E+00
             0.00000000000000000E+00   0.00000000000000000E+00
 ETA=  273   3.60922789920046786E+06   3.60920951399389096E+06   3.60919113977970509E+06   3.60917278752439795E+06   3.60915446529907081E+06
             3.60913617051554797E+06   3.60911789757471206E+06   3.60909964134453656E+06   3.60908139818080328E+06   3.60906316475756932E+06
             3.60904493768270500E+06   3.60902671312083956E+06   3.60900848702396639E+06   3.60899025534209143E+06   3.60897201408535754E+06
             3.60895375910531869E+06   3.60893548629805492E+06   3.60891719143050816E+06   3.60889887016351242E+06   3.60888051818610821E+06
             3.60886213116952870E+06   3.60884370467435382E+06   3.60882523580679391E+06   3.60880672808610136E+06   3.60878818644847209E+06
             3.60876961584083736E+06   3.60875102100985032E+06   3.60873240658492409E+06   3.60871377731723292E+06   3.60869513817547448E+06
             3.60867649411850143E+06   3.60865784906027187E+06   3.60863920179063547E+06   3.60862054991731094E+06   3.60860189117752714E+06
             3.60858322341140220E+06   3.60856454444456659E+06   3.60854585214219615E+06   3.60852714428705815E+06   3.60850841854967084E+06
             3.60848967317705695E+06   3.60847090899325116E+06   3.60845212724442827E+06   3.60843332922869874E+06   3.60841451616069628E+06
             3.60839568916411186E+06   3.60837684938543336E+06   3.60835799788527098E+06   3.60833913561846223E+06   3.60832026347599458E+06
             3.60830138287272397E+06   3.60828249504097784E+06   3.60826360122094257E+06   3.60824470247194404E+06   3.60822579975029500E+06
             3.60820689405518025E+06   3.60818798643540265E+06   3.60816907787537528E+06   3.60815016862474056E+06   3.60813125582460547E+06
             3.60811233577673836E+06   3.60809340480910707E+06   3.60807445916842343E+06   3.60805549503212236E+06   3.60803650863583433E+06
             3.60801749630266428E+06   3.60799845432727085E+06   3.60797937924916763E+06   3.60796026799179101E+06   3.60794111763924733E+06
             3.60792192524913466E+06   3.60790268754952075E+06   3.60788340115162637E+06   3.60786406305216858E+06   3.60784467157522496E+06
             3.60782522533118585E+06   3.60780572279719496E+06   3.60778616101138899E+06   3.60776653675925266E+06   3.60774685108763864E+06
             3.60772712168416567E+06   3.60770737040458666E+06   0.00000000000000000E+00   0.00000000000000000E+00   0.00000000000000000E+00
             0.00000000000000000E+00   0.00000000000000000E+00   0.00000000000000000E+00   0.00000000000000000E+00   0.00000000000000000E+00
             0.00000000000000000E+00   0.00000000000000000E+00   0.00000000000000000E+00   0.00000000000000000E+00   0.00000000000000000E+00
             0.00000000000000000E+00   0.00000000000000000E+00   0.00000000000000000E+00   0.00000000000000000E+00   0.00000000000000000E+00
             0.00000000000000000E+00   0.00000000000000000E+00   0.00000000000000000E+00   0.00000000000000000E+00   0.00000000000000000E+00
             0.00000000000000000E+00   0.00000000000000000E+00   0.00000000000000000E+00   0.00000000000000000E+00   0.00000000000000000E+00
             0.00000000000000000E+00   0.00000000000000000E+00   0.00000000000000000E+00   0.00000000000000000E+00   0.00000000000000000E+00
             0.00000000000000000E+00   0.00000000000000000E+00   0.00000000000000000E+00   0.00000000000000000E+00   0.00000000000000000E+00
             0.00000000000000000E+00   0.00000000000000000E+00   0.00000000000000000E+00   0.00000000000000000E+00   0.00000000000000000E+00
             0.00000000000000000E+00   0.00000000000000000E+00   0.00000000000000000E+00   0.00000000000000000E+00   0.00000000000000000E+00
             0.00000000000000000E+00   0.00000000000000000E+00   0.00000000000000000E+00   0.00000000000000000E+00   0.00000000000000000E+00
             0.00000000000000000E+00   0.00000000000000000E+00   0.00000000000000000E+00   0.00000000000000000E+00   0.00000000000000000E+00
             0.00000000000000000E+00   0.00000000000000000E+00   0.00000000000000000E+00   0.00000000000000000E+00   0.00000000000000000E+00
             0.00000000000000000E+00   0.00000000000000000E+00   0.00000000000000000E+00   0.00000000000000000E+00   0.00000000000000000E+00
             0.00000000000000000E+00   0.00000000000000000E+00   0.00000000000000000E+00   0.00000000000000000E+00   0.00000000000000000E+00
             0.00000000000000000E+00   0.00000000000000000E+00   0.00000000000000000E+00   0.00000000000000000E+00   0.00000000000000000E+00
             0.00000000000000000E+00   0.00000000000000000E+00   0.00000000000000000E+00   0.00000000000000000E+00   0.00000000000000000E+00
             0.00000000000000000E+00   0.00000000000000000E+00   0.00000000000000000E+00   0.00000000000000000E+00   0.00000000000000000E+00
             0.00000000000000000E+00   0.00000000000000000E+00   0.00000000000000000E+00   0.00000000000000000E+00   0.00000000000000000E+00
             0.00000000000000000E+00   0.00000000000000000E+00   0.00000000000000000E+00   0.00000000000000000E+00   0.00000000000000000E+00
             0.00000000000000000E+00   0.00000000000000000E+00   0.00000000000000000E+00   0.00000000000000000E+00   0.00000000000000000E+00
             0.00000000000000000E+00   0.00000000000000000E+00   0.00000000000000000E+00   0.00000000000000000E+00   0.00000000000000000E+00
             0.00000000000000000E+00   0.00000000000000000E+00   0.00000000000000000E+00   0.00000000000000000E+00   0.00000000000000000E+00
             0.00000000000000000E+00   0.00000000000000000E+00   0.00000000000000000E+00   0.00000000000000000E+00   0.00000000000000000E+00
             0.00000000000000000E+00   0.00000000000000000E+00
 ETA=  274   3.60923024743769784E+06   3.60921183558420464E+06   3.60919343523056293E+06   3.60917505787662650E+06   3.60915671211729478E+06
             3.60913839492765442E+06   3.60912010037783952E+06   3.60910182296531275E+06   3.60908355889684241E+06   3.60906530480652442E+06
             3.60904705721395463E+06   3.60902881218071794E+06   3.60901056565390062E+06   3.60899231356867822E+06   3.60897405181259429E+06
             3.60895577626128355E+06   3.60893748278215900E+06   3.60891916720975144E+06   3.60890082537037041E+06   3.60888245309252664E+06
             3.60886404621354584E+06   3.60884560057295160E+06   3.60882711348331114E+06   3.60880858814934781E+06   3.60879002924882667E+06
             3.60877144145966927E+06   3.60875282946043042E+06   3.60873419792982377E+06   3.60871555154651916E+06   3.60869689498901786E+06
             3.60867823293577926E+06   3.60865956893488672E+06   3.60864090201292746E+06   3.60862223006611317E+06   3.60860355099065229E+06
             3.60858486268274114E+06   3.60856616303857369E+06   3.60854744995434443E+06   3.60852872132625198E+06   3.60850997505049361E+06
             3.60849120957133872E+06   3.60847242552533466E+06   3.60845362409709767E+06   3.60843480647124629E+06   3.60841597383239958E+06
             3.60839712736517889E+06   3.60837826825420186E+06   3.60835939768408006E+06   3.60834051683942042E+06   3.60832162689555669E+06
             3.60830272899072478E+06   3.60828382425388508E+06   3.60826491381396959E+06   3.60824599879979203E+06   3.60822708034013724E+06
             3.60820815956389951E+06   3.60818923760041175E+06   3.60817031557911681E+06   3.60815139380092872E+06   3.60813246925264178E+06
             3.60811353809252288E+06   3.60809459648036538E+06   3.60807564058207488E+06   3.60805666656508343E+06   3.60803767059112247E+06
             3.60801864879911579E+06   3.60799959732228564E+06   3.60798051245898614E+06   3.60796139116809936E+06   3.60794223057363648E+06
             3.60792302772019710E+06   3.60790377933471790E+06   3.60788448206472443E+06   3.60786513285411894E+06   3.60784572983232792E+06
             3.60782627142515872E+06   3.60780675583896879E+06   3.60778718040232360E+06   3.60776754222433828E+06   3.60774784254217800E+06
             3.60772809910520213E+06   3.60770833379081823E+06   0.00000000000000000E+00   0.00000000000000000E+00   0.00000000000000000E+00
             0.00000000000000000E+00   0.00000000000000000E+00   0.00000000000000000E+00   0.00000000000000000E+00   0.00000000000000000E+00
             0.00000000000000000E+00   0.00000000000000000E+00   0.00000000000000000E+00   0.00000000000000000E+00   0.00000000000000000E+00
             0.00000000000000000E+00   0.00000000000000000E+00   0.00000000000000000E+00   0.00000000000000000E+00   0.00000000000000000E+00
             0.00000000000000000E+00   0.00000000000000000E+00   0.00000000000000000E+00   0.00000000000000000E+00   0.00000000000000000E+00
             0.00000000000000000E+00   0.00000000000000000E+00   0.00000000000000000E+00   0.00000000000000000E+00   0.00000000000000000E+00
             0.00000000000000000E+00   0.00000000000000000E+00   0.00000000000000000E+00   0.00000000000000000E+00   0.00000000000000000E+00
             0.00000000000000000E+00   0.00000000000000000E+00   0.00000000000000000E+00   0.00000000000000000E+00   0.00000000000000000E+00
             0.00000000000000000E+00   0.00000000000000000E+00   0.00000000000000000E+00   0.00000000000000000E+00   0.00000000000000000E+00
             0.00000000000000000E+00   0.00000000000000000E+00   0.00000000000000000E+00   0.00000000000000000E+00   0.00000000000000000E+00
             0.00000000000000000E+00   0.00000000000000000E+00   0.00000000000000000E+00   0.00000000000000000E+00   0.00000000000000000E+00
             0.00000000000000000E+00   0.00000000000000000E+00   0.00000000000000000E+00   0.00000000000000000E+00   0.00000000000000000E+00
             0.00000000000000000E+00   0.00000000000000000E+00   0.00000000000000000E+00   0.00000000000000000E+00   0.00000000000000000E+00
             0.00000000000000000E+00   0.00000000000000000E+00   0.00000000000000000E+00   0.00000000000000000E+00   0.00000000000000000E+00
             0.00000000000000000E+00   0.00000000000000000E+00   0.00000000000000000E+00   0.00000000000000000E+00   0.00000000000000000E+00
             0.00000000000000000E+00   0.00000000000000000E+00   0.00000000000000000E+00   0.00000000000000000E+00   0.00000000000000000E+00
             0.00000000000000000E+00   0.00000000000000000E+00   0.00000000000000000E+00   0.00000000000000000E+00   0.00000000000000000E+00
             0.00000000000000000E+00   0.00000000000000000E+00   0.00000000000000000E+00   0.00000000000000000E+00   0.00000000000000000E+00
             0.00000000000000000E+00   0.00000000000000000E+00   0.00000000000000000E+00   0.00000000000000000E+00   0.00000000000000000E+00
             0.00000000000000000E+00   0.00000000000000000E+00   0.00000000000000000E+00   0.00000000000000000E+00   0.00000000000000000E+00
             0.00000000000000000E+00   0.00000000000000000E+00   0.00000000000000000E+00   0.00000000000000000E+00   0.00000000000000000E+00
             0.00000000000000000E+00   0.00000000000000000E+00   0.00000000000000000E+00   0.00000000000000000E+00   0.00000000000000000E+00
             0.00000000000000000E+00   0.00000000000000000E+00   0.00000000000000000E+00   0.00000000000000000E+00   0.00000000000000000E+00
             0.00000000000000000E+00   0.00000000000000000E+00   0.00000000000000000E+00   0.00000000000000000E+00   0.00000000000000000E+00
             0.00000000000000000E+00   0.00000000000000000E+00
