*
* Deltares, Delft3D-RGFGRID Version 4.18.00.16842, May 25 2011, 10:45:12
* File creation date: 2015-07-17, 13:48:09
*
Coordinate System = Cartesian
     432      98
 0 0 0
 ETA=    1   4.10940374330276914E+05   4.11075607723238762E+05   4.11210841116200609E+05   4.11346074509162456E+05   4.11481307902124303E+05
             4.11616541295086150E+05   4.11751774688047997E+05   4.11888216433229623E+05   4.12025892613215139E+05   4.12165629061516258E+05
             4.12306199639791215E+05   4.12448428460331925E+05   4.12591970767425082E+05   4.12736629644682573E+05   4.12826987494776724E+05
             4.12944481840951310E+05   4.13075166497240309E+05   4.13212086647234217E+05   4.13352736991508747E+05   4.13495739281625429E+05
             4.13640224989500945E+05   4.13786231042565778E+05   4.13928958208443713E+05   4.14076465064965887E+05   4.14228029731783434E+05
             4.14384748439293471E+05   4.14548446041779825E+05   4.14722203939430241E+05   4.14907964490876533E+05   4.15101052815833711E+05
             4.15295846655567293E+05   4.15487232917722664E+05   4.15675520847720618E+05   4.15863794814782450E+05   4.16055536377132172E+05
             4.16254064888188732E+05   4.16463239431276801E+05   4.16669754038821149E+05   4.16882180374368909E+05   4.17100782099782722E+05
             4.17326314492144855E+05   4.17559985024084279E+05   4.17803507892891939E+05   4.18059389928110118E+05   4.18331453229255625E+05
             4.18626468829092802E+05   4.18959130433030194E+05   4.19203624857083836E+05   4.19451939759677043E+05   4.19703562001676823E+05
             4.19957802283224068E+05   4.20213628916216432E+05   4.20469370082991838E+05   4.20722589954844909E+05   4.20970722129820031E+05
             4.21211305512726598E+05   4.21439824041217798E+05   4.21663555541063135E+05   4.21891170493279118E+05   4.22156245579366107E+05
             4.22405057973890333E+05   4.22646099007961166E+05   4.22885389955135412E+05   4.23125866053599981E+05   4.23368666348322993E+05
             4.23591652967559232E+05   4.23833020471720840E+05   4.24082958148475969E+05   4.24337169037634041E+05   4.24593286463507859E+05
             4.24850236830592854E+05   4.25086496602991654E+05   4.25329940894276137E+05   4.25575470948100847E+05   4.25819463002018572E+05
             4.26059767943399318E+05   4.26294643054665299E+05   4.26521564130539715E+05   4.26736574897308485E+05   4.26938315604328585E+05
             4.27131553211638005E+05   4.27315422675249400E+05   4.27494877064797736E+05   4.27674069838972879E+05   4.27855088055763976E+05
             4.28037677364533651E+05   4.28222578939074476E+05   4.28410587597180682E+05   4.28602103862365067E+05   4.28797031283412769E+05
             4.28994990646759223E+05   4.29188879779861949E+05   4.29389669453802228E+05   4.29594974864453310E+05   4.29794376686053758E+05
             4.29998998047750676E+05   4.30204783926634118E+05   4.30409449660154118E+05   4.30612110002598376E+05   4.30801926491992897E+05
             4.30996392115036142E+05   4.31191316496836778E+05   4.31385151446116099E+05   4.31579257928910782E+05   4.31773070233445149E+05
             4.31965465685435687E+05   4.32155199065504421E+05   4.32341233840620669E+05   4.32522962315110315E+05   4.32700171616162464E+05
             4.32873017808079312E+05   4.33041876503746724E+05   4.33207338344641903E+05   4.33370257459455868E+05   4.33510965697422856E+05
             4.33650374697554857E+05   4.33787704311983194E+05   4.33921757228611677E+05   4.34053131423647748E+05   4.34180870181592007E+05
             4.34305516417020990E+05   4.34426581981840485E+05   4.34543405096737784E+05   4.34655398430019559E+05   4.34762077588511573E+05
             4.34863121250625642E+05   4.34958469691290928E+05   4.35048836606208235E+05   4.35135564722770127E+05   4.35219770076478540E+05
             4.35302120253409899E+05   4.35382385892997845E+05   4.35462873197159730E+05   4.35541579569705587E+05   4.35618054497811419E+05
             4.35692256701473438E+05   4.35764812645767408E+05   4.35835249641481787E+05   4.35903730320751551E+05   4.35970381166521169E+05
             4.36038229712182772E+05   4.36104546481942409E+05   4.36169419606109383E+05   4.36232955528255843E+05   4.36295258272635459E+05
             4.36356454284404695E+05   4.36416737781037169E+05   4.36476419033229409E+05   4.36535844266968663E+05   4.36595193792292906E+05
             4.36654776214535523E+05   4.36714904025039461E+05   4.36776098944274476E+05   4.36838958858431200E+05   4.36904142912749492E+05
             4.36972347351256583E+05   4.37044255114683241E+05   4.37120453571822785E+05   4.37201347775595903E+05   4.37286634140271926E+05
             4.37375617442610208E+05   4.37467613302288926E+05   4.37562055256641004E+05   4.37658606694567250E+05   4.37757258680409228E+05
             4.37858365235282108E+05   4.37962274327005842E+05   4.38068762793414469E+05   4.38177084325233242E+05   4.38287530992458167E+05
             4.38400512006509991E+05   4.38516506847758312E+05   4.38626679479429149E+05   4.38738283643414092E+05   4.38851353750463924E+05
             4.38965394921335217E+05   4.39078689150333987E+05   4.39187104277515609E+05   4.39273710888069181E+05   4.39369325485805108E+05
             4.39464833163858100E+05   4.39557814995840599E+05   4.39647759840938495E+05   4.39735627733871981E+05   4.39823374602813739E+05
             4.39913061642064364E+05   4.39996333673392888E+05   4.40073296343277383E+05   4.40149944729042181E+05   4.40226203465113416E+05
             4.40302147922755277E+05   4.40377896746895101E+05   4.40453514487788139E+05   4.40529098553576448E+05   4.40605091621408821E+05
             4.40682419465253362E+05   4.40761758833925065E+05   4.40843372678734071E+05   4.40927383518975868E+05   4.41014029102095112E+05
             4.41103714773766813E+05   4.41196896384737745E+05   4.41293860706952517E+05   4.41394793868234963E+05   4.41499839267681818E+05
             4.41608813508957857E+05   4.41721180056557525E+05   4.41835937038117612E+05   4.41951553019687010E+05   4.42066137360275432E+05
             4.42177890940492100E+05   4.42285490799685183E+05   4.42388427910259343E+05   4.42487021239923255E+05   4.42582123701901408E+05
             4.42674730535882118E+05   4.42765962682697398E+05   4.42856877620042593E+05   4.42948284326232504E+05   4.43040777935921331E+05
             4.43134852929246495E+05   4.43230911358296580E+05   4.43329236116239801E+05   4.43429996714127599E+05   4.43533262999638449E+05
             4.43638950705783151E+05   4.43746811601551657E+05   4.43856286490439030E+05   4.43969867901534773E+05   4.44085730340652633E+05
             4.44203905799495464E+05   4.44324527786289749E+05   4.44447562771954981E+05   4.44572380071526219E+05   4.44698146546153468E+05
             4.44823882245647081E+05   4.44948604392381792E+05   4.45071426571165503E+05   4.45191620483298087E+05   4.45308604763081530E+05
             4.45421818550839729E+05   4.45530728774084884E+05   4.45634340491506271E+05   4.45732887617282628E+05   4.45827510795056704E+05
             4.45920292908938369E+05   4.46013018011780281E+05   4.46106693839645712E+05   4.46201179373897437E+05   4.46295944265945465E+05
             4.46390381198648945E+05   4.46484028661426099E+05   4.46576596006395121E+05   4.46667986439962755E+05   4.46758165764698235E+05
             4.46847134661839576E+05   4.46934999436087441E+05   4.47021912999172171E+05   4.47107580411600065E+05   4.47192384638001036E+05
             4.47276410905649711E+05   4.47359766790040303E+05   4.47442519899764040E+05   4.47524741791366367E+05   4.47606347300540248E+05
             4.47687730469480506E+05   4.47767669136712386E+05   4.47844647638080933E+05   4.47921579155293934E+05   4.47997990906822262E+05
             4.48074077381009818E+05   4.48149800240001350E+05   4.48225161165692203E+05   4.48299935562719940E+05   4.48374608240569709E+05
             4.48447906526840641E+05   4.48531044434200623E+05   4.48618535305432801E+05   4.48682913337771490E+05   4.48751281044307747E+05
             4.48817655957003997E+05   4.48883057696937118E+05   4.48947245486809989E+05   4.49010270928667567E+05   4.49072106259664579E+05
             4.49132831774976512E+05   4.49192525178678276E+05   4.49251333698094997E+05   4.49309539498824393E+05   4.49367693193097250E+05
             4.49426846651654341E+05   4.49474722758449265E+05   4.49520680077846977E+05   4.49564871785124997E+05   4.49609271797663008E+05
             4.49652238897339557E+05   4.49694447129092179E+05   4.49735564006984467E+05   4.49775827808789269E+05   4.49815456694578985E+05
             4.49854624183445529E+05   4.49894076709143934E+05   4.49933319181004772E+05   4.49973632511628035E+05   4.50014140174196102E+05
             4.50054976371697616E+05   4.50096230558990384E+05   4.50137953126867127E+05   4.50180160359355796E+05   4.50222819376365631E+05
             4.50265791703332507E+05   4.50308792024139548E+05   4.50351373116653122E+05   4.50392955061084125E+05   4.50433010083756875E+05
             4.50472329539644707E+05   4.50512117587223707E+05   4.50555410998740583E+05   4.50601777729467081E+05   4.50650165052776574E+05
             4.50700440276164096E+05   4.50752123114845133E+05   4.50805491769736051E+05   4.50860775717457815E+05   4.50918077044846839E+05
             4.50977459033998835E+05   4.51039967627999315E+05   4.51104821776451892E+05   4.51171957239092211E+05   4.51241294030787074E+05
             4.51313000633848598E+05   4.51386596398918889E+05   4.51462434125708125E+05   4.51540166907123057E+05   4.51619662998697429E+05
             4.51701442779007193E+05   4.51785099766202387E+05   4.51870419589127065E+05   4.51956248612720694E+05   4.52045258236059512E+05
             4.52136750620309089E+05   4.52230473253601464E+05   4.52326253667101497E+05   4.52424752778673719E+05   4.52526737246662553E+05
             4.52632796620446781E+05   4.52743297215255327E+05   4.52858045405263663E+05   4.52975055943201296E+05   4.53094825998319371E+05
             4.53216363921292417E+05   4.53338592764039873E+05   4.53460182201172516E+05   4.53579652402022737E+05   4.53695397544304433E+05
             4.53806550860496820E+05   4.53913073460334621E+05   4.54015306634773791E+05   4.54113745594396547E+05   4.54208896808176592E+05
             4.54301189964827499E+05   4.54390873679434299E+05   4.54478630607114756E+05   4.54533385390873358E+05   4.54588431989140576E+05
             4.54688554534247960E+05   4.54780790074922494E+05   4.54867446798105433E+05   4.54951390918170509E+05   4.55033702470413293E+05
             4.55114897178232030E+05   4.55195361088753794E+05   4.55275198828151624E+05   4.55355208385386039E+05   4.55436059234012035E+05
             4.55518637626564712E+05   4.55590921352002653E+05   4.55658612635638623E+05   4.55732034839458996E+05   4.55807262331639475E+05
             4.55882915317007457E+05   4.55958582637051120E+05   4.56034074819523143E+05   4.56109330418374098E+05   4.56184412797689205E+05
             4.56259240456494212E+05   4.56333455351578479E+05   4.56406923589211307E+05   4.56480002177767281E+05   4.56553533559919160E+05
             4.56627300152835436E+05   4.56698816259418614E+05   4.56767217910521722E+05   4.56833841637714417E+05   4.56899310779929336E+05
             4.56964792055704340E+05   4.57031205647815135E+05   4.57099635043103190E+05   4.57171283790025976E+05   4.57247439772880694E+05
             4.57329853080886242E+05   4.57420541329097818E+05   4.57520620244918624E+05   4.57627955532830849E+05   4.57736900891133817E+05
             4.57842953445007151E+05   4.57945476155786484E+05   4.58045299551620905E+05   4.58145220619501837E+05   4.58243400231207372E+05
             4.58342759190156008E+05   4.58441603760917555E+05   4.58540884743490489E+05   4.58638410312718188E+05   4.58749262989094714E+05
             4.58859303792203253E+05   4.58970150509530969E+05   4.59079686970352079E+05   4.59189223431173188E+05   4.59298759891994298E+05
             4.59414537606094207E+05   4.59527314026464883E+05   4.59639456577166042E+05   4.59752253010911809E+05   4.59866230348896119E+05
             4.59981485717525706E+05   4.60096285118717933E+05   4.60211023046056682E+05   4.60327119435754837E+05   4.60445791262626997E+05
             4.60567351406988513E+05   4.60690172534279642E+05
 ETA=    2   4.11231138296173594E+05   4.11370059478523675E+05   4.11508980660873756E+05   4.11647901843223837E+05   4.11786823025573918E+05
             4.11925744207923999E+05   4.12064665390274080E+05   4.12204713980906992E+05   4.12345896588142088E+05   4.12488905302347674E+05
             4.12632663361666782E+05   4.12777866822329699E+05   4.12924196634049702E+05   4.13071469607253151E+05   4.13178499676217791E+05
             4.13303742104445875E+05   4.13438248776274326E+05   4.13577442189567373E+05   4.13719776927218190E+05   4.13864305364617438E+05
             4.14010349472037051E+05   4.14157919623986469E+05   4.14303398513692373E+05   4.14452915328352712E+05   4.14605851004896103E+05
             4.14763016102410387E+05   4.14926152112421056E+05   4.15098636869343114E+05   4.15283585710415966E+05   4.15477659109666827E+05
             4.15673338933308958E+05   4.15864914279887395E+05   4.16052999477203353E+05   4.16240871879087645E+05   4.16431753631144238E+05
             4.16628422069441236E+05   4.16834004069479299E+05   4.17038029104241519E+05   4.17247331414797809E+05   4.17462230154167628E+05
             4.17683429903885699E+05   4.17912007294839190E+05   4.18149469339719217E+05   4.18397979815025639E+05   4.18660760297058674E+05
             4.18943272169039992E+05   4.19256696482577070E+05   4.19497215871331806E+05   4.19741371704034973E+05   4.19988682605985552E+05
             4.20238510437360674E+05   4.20489912355272390E+05   4.20741365194811602E+05   4.20990626262858743E+05   4.21235288048051298E+05
             4.21473127876490471E+05   4.21700412461587111E+05   4.21923643671173370E+05   4.22150458781519206E+05   4.22412647876035073E+05
             4.22659332371366734E+05   4.22899094263043255E+05   4.23137631014625658E+05   4.23377632294841402E+05   4.23620122661501402E+05
             4.23860423568413244E+05   4.24106720947265043E+05   4.24357855901445262E+05   4.24612292740380333E+05   4.24868591985023580E+05
             4.25125302503382671E+05   4.25369086788384826E+05   4.25618039457075356E+05   4.25867415696854237E+05   4.26114250740653719E+05
             4.26356649758688640E+05   4.26593063073453202E+05   4.26821763822552981E+05   4.27041002006018767E+05   4.27250560539958591E+05
             4.27452537620651477E+05   4.27648668219464307E+05   4.27841975677263224E+05   4.28035037478530663E+05   4.28228978566767648E+05
             4.28424136842931039E+05   4.28621287951051490E+05   4.28821172377045383E+05   4.29023905770432029E+05   4.29228933368058526E+05
             4.29435429686569725E+05   4.29636502701079415E+05   4.29843607241156395E+05   4.30054109539034136E+05   4.30260317903729447E+05
             4.30471002991019690E+05   4.30682304620341281E+05   4.30892042675640434E+05   4.31099584218949080E+05   4.31294542922350869E+05
             4.31493078174621682E+05   4.31690659834500286E+05   4.31888279067007417E+05   4.32085128899762989E+05   4.32280902901159483E+05
             4.32474642235310399E+05   4.32665237439036078E+05   4.32851762209787732E+05   4.33033668565498956E+05   4.33210833464600088E+05
             4.33383502620038926E+05   4.33552193369101617E+05   4.33717501296195725E+05   4.33876882718678564E+05   4.34031190645599447E+05
             4.34183560305374558E+05   4.34338014683532296E+05   4.34490449777396396E+05   4.34641336066451098E+05   4.34789739279863308E+05
             4.34935065171281749E+05   4.35076371295544261E+05   4.35212502966919506E+05   4.35342354263291461E+05   4.35465074714746035E+05
             4.35580053989983688E+05   4.35687067055302032E+05   4.35786844376984285E+05   4.35880834512176923E+05   4.35970276671642030E+05
             4.36056226115507248E+05   4.36138634938348900E+05   4.36220976358891930E+05   4.36301246948330372E+05   4.36378995124751469E+05
             4.36454266219049925E+05   4.36526129236579291E+05   4.36595872176084202E+05   4.36663658056604618E+05   4.36729659476489003E+05
             4.36796932691900292E+05   4.36862787173242716E+05   4.36927401099863870E+05   4.36990989349464886E+05   4.37053803473632841E+05
             4.37116127247237950E+05   4.37178247186280729E+05   4.37240423689211602E+05   4.37302984465632122E+05   4.37366140609550639E+05
             4.37430198814083415E+05   4.37495438226268336E+05   4.37562257552936440E+05   4.37631149880326178E+05   4.37702666951313382E+05
             4.37777374587710772E+05   4.37855796918690088E+05   4.37938336562804005E+05   4.38025178799128393E+05   4.38116194129032607E+05
             4.38211000126812956E+05   4.38309096183501300E+05   4.38409958627758664E+05   4.38513193494901760E+05   4.38618705053050711E+05
             4.38726749514117255E+05   4.38837591323991073E+05   4.38950814423746488E+05   4.39065431749963900E+05   4.39181190167687018E+05
             4.39298205450332025E+05   4.39416842785165063E+05   4.39526989527119091E+05   4.39637397092285333E+05   4.39748337318820995E+05
             4.39859935849116591E+05   4.39971538931301446E+05   4.40080516662834678E+05   4.40182191187702352E+05   4.40283059448765765E+05
             4.40381979853393976E+05   4.40477393958406232E+05   4.40568297718307062E+05   4.40655980430983414E+05   4.40743175281952950E+05
             4.40832342016790411E+05   4.40919743982288521E+05   4.41000237855636398E+05   4.41079810025362473E+05   4.41158553745791956E+05
             4.41236656148008537E+05   4.41314308713410515E+05   4.41391629226618330E+05   4.41468719966828940E+05   4.41545995359438180E+05
             4.41624321716837061E+05   4.41704334009578917E+05   4.41786277626968455E+05   4.41870275413606199E+05   4.41956538889857358E+05
             4.42045409898081620E+05   4.42137256340987922E+05   4.42232227380517172E+05   4.42330276353346650E+05   4.42431322708041873E+05
             4.42535085006212292E+05   4.42640986986631877E+05   4.42748126645796758E+05   4.42855353237135219E+05   4.42961494707167905E+05
             4.43065643233998329E+05   4.43167314420520619E+05   4.43266410432729404E+05   4.43363072832204693E+05   4.43457598586747597E+05
             4.43550380642605422E+05   4.43641860558822693E+05   4.43732504941231222E+05   4.43822823743366753E+05   4.43913342438115680E+05
             4.44004568320379243E+05   4.44096962414373993E+05   4.44190918068563973E+05   4.44286740318690601E+05   4.44384639517662872E+05
             4.44484705155318719E+05   4.44586811699889309E+05   4.44690498709777487E+05   4.44798125624198525E+05   4.44908082336027408E+05
             4.45020178559737746E+05   4.45134111154371931E+05   4.45249518027283309E+05   4.45365934932475793E+05   4.45482833865294117E+05
             4.45599687383397308E+05   4.45716006665703957E+05   4.45831357706961164E+05   4.45945317483546562E+05   4.46057399710762373E+05
             4.46166986596157891E+05   4.46273362141825142E+05   4.46375335816683539E+05   4.46472632497206854E+05   4.46565888441121264E+05
             4.46656906701907516E+05   4.46747230987723859E+05   4.46837733779652102E+05   4.46928482575994101E+05   4.47019124474999087E+05
             4.47109255167722062E+05   4.47198581628509855E+05   4.47286934957875928E+05   4.47374257586347579E+05   4.47460547678178234E+05
             4.47545829041972873E+05   4.47630185365635843E+05   4.47713712836133840E+05   4.47796036240676534E+05   4.47877556547250540E+05
             4.47958342879072239E+05   4.48038459424396278E+05   4.48117953793709225E+05   4.48196845179216936E+05   4.48275119658113748E+05
             4.48352751154782483E+05   4.48429917734508519E+05   4.48505958427932695E+05   4.48581350659632299E+05   4.48656196855033806E+05
             4.48730603547667619E+05   4.48804668333897716E+05   4.48878462335520191E+05   4.48951948540571088E+05   4.49024751912259031E+05
             4.49095571903096687E+05   4.49162206392017484E+05   4.49234905929825909E+05   4.49304164607213810E+05   4.49371665428503940E+05
             4.49437631214057328E+05   4.49502010320786620E+05   4.49565156841410324E+05   4.49627183179070766E+05   4.49688212502917799E+05
             4.49748435796351871E+05   4.49808139009430073E+05   4.49867783813305316E+05   4.49928184595470899E+05   4.49990830269030703E+05
             4.50058511447108758E+05   4.50107702292955597E+05   4.50155200984459487E+05   4.50201137322943134E+05   4.50247513220614521E+05
             4.50292618579906004E+05   4.50337109348628321E+05   4.50380607977942214E+05   4.50423321342413779E+05   4.50465435750233766E+05
             4.50507095927657967E+05   4.50549045340635523E+05   4.50590751089429774E+05   4.50633517269341100E+05   4.50676431491108146E+05
             4.50719627863945905E+05   4.50763196820190351E+05   4.50807190307126497E+05   4.50851627792862244E+05   4.50896485822041519E+05
             4.50941651181051740E+05   4.50986886221042718E+05   4.51031815695339697E+05   4.51075950420740468E+05   4.51118841903047811E+05
             4.51161280264442263E+05   4.51204189293932985E+05   4.51250146707023319E+05   4.51298650953468168E+05   4.51349000017374172E+05
             4.51401068236701831E+05   4.51454405434922548E+05   4.51509260909175733E+05   4.51565837686305051E+05   4.51624236651376006E+05
             4.51684519183015975E+05   4.51747637350017321E+05   4.51812886907484906E+05   4.51880224494221387E+05   4.51949589127904910E+05
             4.52021143904083990E+05   4.52094476866606390E+05   4.52169906081063440E+05   4.52247135825445934E+05   4.52326059316513070E+05
             4.52407125047278591E+05   4.52490000458591268E+05   4.52574540263614035E+05   4.52660032066650572E+05   4.52748172284729313E+05
             4.52838507499896572E+05   4.52930888201023452E+05   4.53025126103671733E+05   4.53121819867341255E+05   4.53221570033483382E+05
             4.53324846311866364E+05   4.53431946802476596E+05   4.53542739705731568E+05   4.53655348808543757E+05   4.53770369159910653E+05
             4.53886974770759116E+05   4.54004257634324429E+05   4.54121093056810729E+05   4.54236222671308147E+05   4.54348296205536113E+05
             4.54456553497197980E+05   4.54560909895010758E+05   4.54661621165018820E+05   4.54759101249903208E+05   4.54853793019826931E+05
             4.54946039898895368E+05   4.55035953795656620E+05   4.55123956660089665E+05   4.55210984572801448E+05   4.55248391760743980E+05
             4.55345290139718622E+05   4.55436647406806296E+05   4.55523897060571588E+05   4.55609154492713336E+05   4.55693239583491930E+05
             4.55776538065079949E+05   4.55859320270620519E+05   4.55941515674400609E+05   4.56023860246428812E+05   4.56106792290111189E+05
             4.56190903681550466E+05   4.56292771833165199E+05   4.56368830303085095E+05   4.56452316962444573E+05   4.56537242145025113E+05
             4.56621681303714984E+05   4.56705319707146846E+05   4.56788253568685846E+05   4.56870718373657495E+05   4.56953080067609088E+05
             4.57035408372111153E+05   4.57117283114536898E+05   4.57197898247983307E+05   4.57276456889074296E+05   4.57352990237461869E+05
             4.57428127390953130E+05   4.57501794650513795E+05   4.57573870792257134E+05   4.57644541564226267E+05   4.57714060392161249E+05
             4.57783017065246939E+05   4.57852400593834231E+05   4.57923379131358408E+05   4.57997126462873362E+05   4.58074785254422051E+05
             4.58157348256045952E+05   4.58245382424086041E+05   4.58338856600761472E+05   4.58436422510164557E+05   4.58535453782478406E+05
             4.58633699839997862E+05   4.58730525205281214E+05   4.58826396004069364E+05   4.58922216066447319E+05   4.59017283101058623E+05
             4.59110342492991360E+05   4.59204643426639785E+05   4.59300214432339184E+05   4.59395362224696204E+05   4.59497856740802992E+05
             4.59602241512144275E+05   4.59709443828531192E+05   4.59817434232753119E+05   4.59925424636975047E+05   4.60033415041196975E+05
             4.60143428352945193E+05   4.60252591541545698E+05   4.60361632134784304E+05   4.60471176633087220E+05   4.60581649197341525E+05
             4.60694384551680938E+05   4.60806814184725808E+05   4.60919096692197665E+05   4.61032867740916088E+05   4.61149581033350900E+05
             4.61269864055605780E+05   4.61392416615368973E+05
 ETA=    3   4.11457449708755594E+05   4.11623723869648064E+05   4.11781730108337535E+05   4.11934990005567204E+05   4.12085189270838571E+05
             4.12233305027241411E+05   4.12379931726532639E+05   4.12526472910984303E+05   4.12673320196360466E+05   4.12820247780074948E+05
             4.12966692118897568E+05   4.13113312667694176E+05   4.13259917662364896E+05   4.13406309569823730E+05   4.13530011857658857E+05
             4.13663002367940440E+05   4.13801331055308343E+05   4.13942797731900529E+05   4.14086816862927633E+05   4.14232871447609446E+05
             4.14380473954573157E+05   4.14529608205407159E+05   4.14677838818941033E+05   4.14829365591739537E+05   4.14983672278008773E+05
             4.15141283765527303E+05   4.15303858183062286E+05   4.15475069799255987E+05   4.15659206929955399E+05   4.15854265403499943E+05
             4.16050831211050623E+05   4.16242595642052125E+05   4.16430478106686089E+05   4.16617948943392839E+05   4.16807970885156305E+05
             4.17002779250693740E+05   4.17204768707681797E+05   4.17406304169661889E+05   4.17612482455226709E+05   4.17823678208552534E+05
             4.18040545315626543E+05   4.18264029565594101E+05   4.18495430786546494E+05   4.18736569701941160E+05   4.18990067364861723E+05
             4.19260075508987182E+05   4.19554262532123947E+05   4.19790806885579776E+05   4.20030803648392903E+05   4.20273803210294282E+05
             4.20519218591497280E+05   4.20766195794328349E+05   4.21013360306631366E+05   4.21258662570872577E+05   4.21499853966282564E+05
             4.21734950240254344E+05   4.21961000881956425E+05   4.22183731801283604E+05   4.22409747069759294E+05   4.22669050172704039E+05
             4.22913606768843136E+05   4.23152089518125344E+05   4.23389872074115905E+05   4.23629398536082823E+05   4.23871578974679811E+05
             4.24117322521804192E+05   4.24365741368329502E+05   4.24617444076518121E+05   4.24872218428140506E+05   4.25129402701613610E+05
             4.25388004929223680E+05   4.25638799798248569E+05   4.25892534666966239E+05   4.26145623979434371E+05   4.26395674607366323E+05
             4.26641076889428310E+05   4.26880642470580991E+05   4.27113389068957185E+05   4.27338685256161785E+05   4.27556855639022659E+05
             4.27769368331108592E+05   4.27977939318101620E+05   4.28184428192193038E+05   4.28390290321950277E+05   4.28596089776293258E+05
             4.28802414630002342E+05   4.29010385797033261E+05   4.29220960221831338E+05   4.29434213323636563E+05   4.29649298274288885E+05
             4.29864968906837283E+05   4.30073638663516904E+05   4.30287413331307354E+05   4.30503669324272661E+05   4.30715800961358007E+05
             4.30932034884747001E+05   4.31148577598342265E+05   4.31363227797287924E+05   4.31575374405191629E+05   4.31775238214965153E+05
             4.31977997304277553E+05   4.32179109597789822E+05   4.32381111640089541E+05   4.32581621657835145E+05   4.32780441307924339E+05
             4.32976720720985672E+05   4.33169434822609124E+05   4.33357725216939172E+05   4.33541105822326150E+05   4.33719522106779041E+05
             4.33893275640003849E+05   4.34062979490022175E+05   4.34229418706230237E+05   4.34391863927942934E+05   4.34551562824022840E+05
             4.34710254345913476E+05   4.34874136391022825E+05   4.35036877297866042E+05   4.35198745382422232E+05   4.35360226333637605E+05
             4.35519372499623976E+05   4.35675125211368606E+05   4.35826148894562328E+05   4.35969447934017575E+05   4.36105308547415014E+05
             4.36232881844387390E+05   4.36351751358375885E+05   4.36462691873208038E+05   4.36566888182134542E+05   4.36665276936807379E+05
             4.36758837460191222E+05   4.36846569780657941E+05   4.36933940744292922E+05   4.37018749301691540E+05   4.37100437459168490E+05
             4.37179099466492306E+05   4.37255391651183425E+05   4.37328834352420119E+05   4.37399753354715591E+05   4.37468468869911740E+05
             4.37538389768758381E+05   4.37606699953365664E+05   4.37673680562720634E+05   4.37739646705549269E+05   4.37804943867649592E+05
             4.37869928905647015E+05   4.37934936852146115E+05   4.38000260160129110E+05   4.38066217615119007E+05   4.38133055842346104E+05
             4.38201073760311760E+05   4.38270556112423947E+05   4.38341855785531865E+05   4.38415387718495796E+05   4.38491607218710997E+05
             4.38570979254018923E+05   4.38653933002036123E+05   4.38740782919537451E+05   4.38831653227966570E+05   4.38926430715150433E+05
             4.39024805218275229E+05   4.39126346165587718E+05   4.39230571661079361E+05   4.39337071147738607E+05   4.39445656672204321E+05
             4.39556431647972902E+05   4.39669526608127460E+05   4.39784521469938103E+05   4.39900516436436796E+05   4.40017220731988084E+05
             4.40134649557659344E+05   4.40253009624983009E+05   4.40366379704211315E+05   4.40479211540417280E+05   4.40591979288965755E+05
             4.40705231795510743E+05   4.40819151763851463E+05   4.40932794030734221E+05   4.41044328535185894E+05   4.41154935756643128E+05
             4.41264010601817514E+05   4.41370598646049853E+05   4.41473787132290774E+05   4.41562655046968837E+05   4.41650551783932606E+05
             4.41739875134807429E+05   4.41832384998751048E+05   4.41917826573160302E+05   4.42001504025824484E+05   4.42083641247564403E+05
             4.42164541753879690E+05   4.42244502475843474E+05   4.42323740735680505E+05   4.42402440590459562E+05   4.42481041477021412E+05
             4.42560282444905431E+05   4.42640763732855849E+05   4.42722740831742354E+05   4.42806353199796402E+05   4.42891785048102669E+05
             4.42979297684221237E+05   4.43069161401312158E+05   4.43161496717596543E+05   4.43256253538616817E+05   4.43353308084438264E+05
             4.43452396633725730E+05   4.43553071428571886E+05   4.43654685494130244E+05   4.43756441083391604E+05   4.43857525067627197E+05
             4.43957279155609140E+05   4.44055308135067287E+05   4.44151464811040845E+05   4.44245762238476775E+05   4.44338313494121889E+05
             4.44429312555762823E+05   4.44519006001159549E+05   4.44607694552772504E+05   4.44695744367294770E+05   4.44783572998669290E+05
             4.44871624033688626E+05   4.44960335609837959E+05   4.45050117203359783E+05   4.45141326982015918E+05   4.45234253474983736E+05
             4.45329074132116220E+05   4.45425754913702898E+05   4.45523892275046266E+05   4.45625505036401562E+05   4.45729300438326842E+05
             4.45834973356323200E+05   4.45942140802439768E+05   4.46050405246954004E+05   4.46159380661170348E+05   4.46268712678492244E+05
             4.46378100452424784E+05   4.46487301815278712E+05   4.46596102592319890E+05   4.46704245393508580E+05   4.46811333788114251E+05
             4.46916757213816978E+05   4.47019695941110549E+05   4.47118989327205287E+05   4.47214061825576879E+05   4.47305233576156199E+05
             4.47393870983099681E+05   4.47481354141389776E+05   4.47568508957415528E+05   4.47655500398274162E+05   4.47742132042695477E+05
             4.47828146375729702E+05   4.47913356215951033E+05   4.47997658760264516E+05   4.48081020235467062E+05   4.48163455648922536E+05
             4.48245002842991205E+05   4.48325753792218515E+05   4.48405850747853692E+05   4.48484839550021978E+05   4.48563109365570126E+05
             4.48640718893219135E+05   4.48717719679397880E+05   4.48794151793680270E+05   4.48870042766695144E+05   4.48945404248503386E+05
             4.49020255874472146E+05   4.49094819427165901E+05   4.49168601388024283E+05   4.49241822012128134E+05   4.49314514220471028E+05
             4.49386724425536173E+05   4.49458500119253760E+05   4.49529851371425553E+05   4.49600650723483472E+05   4.49670372043398849E+05
             4.49737647460820444E+05   4.49800142644559906E+05   4.49868036165073921E+05   4.49934563327098906E+05   4.50000009930383996E+05
             4.50064418836942175E+05   4.50127617200469773E+05   4.50189896417926240E+05   4.50251409864642133E+05   4.50312360095225624E+05
             4.50373027484119055E+05   4.50433792399801314E+05   4.50495162135427585E+05   4.50557796511208813E+05   4.50622508163065067E+05
             4.50690176242563175E+05   4.50740681827461929E+05   4.50789721891071997E+05   4.50837402860761271E+05   4.50885754643566033E+05
             4.50932998262472451E+05   4.50979771568164462E+05   4.51025651948899962E+05   4.51070814876038290E+05   4.51115414805888548E+05
             4.51159567671870405E+05   4.51204013972127112E+05   4.51248182997854776E+05   4.51293402027054166E+05   4.51338722808020189E+05
             4.51384279356194194E+05   4.51430163081390318E+05   4.51476427487385867E+05   4.51523095226368692E+05   4.51570152267717407E+05
             4.51617510658770974E+05   4.51664980417945888E+05   4.51712258274026273E+05   4.51758945780396811E+05   4.51804673722338746E+05
             4.51850230989239819E+05   4.51896261000642262E+05   4.51944882415306056E+05   4.51995524177469255E+05   4.52047834981971770E+05
             4.52101696197239566E+05   4.52156687754999963E+05   4.52213030048615416E+05   4.52270899655152287E+05   4.52330396257905173E+05
             4.52391579332033114E+05   4.52455307072035328E+05   4.52520952038517920E+05   4.52588491749350564E+05   4.52657884225022746E+05
             4.52729287174319383E+05   4.52802357334293891E+05   4.52877378036418755E+05   4.52954104743768810E+05   4.53032455634328711E+05
             4.53112807315549988E+05   4.53194901150980149E+05   4.53278660938101006E+05   4.53363815520580451E+05   4.53451086333399115E+05
             4.53540264379484055E+05   4.53631303148445440E+05   4.53723998540241970E+05   4.53818886956008791E+05   4.53916402820304211E+05
             4.54016896003285947E+05   4.54120596389697865E+05   4.54227434006199474E+05   4.54335641673886217E+05   4.54445912321501935E+05
             4.54557585620225815E+05   4.54669922504608985E+05   4.54782003912448941E+05   4.54892792940593557E+05   4.55001194866767793E+05
             4.55106556133899139E+05   4.55208746329686895E+05   4.55307935695263848E+05   4.55404456905409868E+05   4.55498689231477270E+05
             4.55590889832963236E+05   4.55681033911878942E+05   4.55769282713064575E+05   4.55856067750958609E+05   4.55908351532347384E+05
             4.56002025745189283E+05   4.56092504738690099E+05   4.56180347323037742E+05   4.56266918067256163E+05   4.56352776696570567E+05
             4.56438178951927868E+05   4.56523279452487244E+05   4.56607832520649594E+05   4.56692512107471586E+05   4.56777525346210343E+05
             4.56863169736536220E+05   4.56972042136324628E+05   4.57064077368862927E+05   4.57158622819490032E+05   4.57252716072820127E+05
             4.57345271393429197E+05   4.57436320527663745E+05   4.57526181234799500E+05   4.57615258515484107E+05   4.57704070049139205E+05
             4.57792783607199322E+05   4.57880990094174165E+05   4.57967686732674541E+05   4.58051667833975807E+05   4.58132617972374079E+05
             4.58211379244164214E+05   4.58288592129762226E+05   4.58364446286163642E+05   4.58438992609167239E+05   4.58512313119809085E+05
             4.58584758287298551E+05   4.58657226228900719E+05   4.58730828154655988E+05   4.58806644493978005E+05   4.58885624092741869E+05
             4.58968309469734842E+05   4.59054596207360853E+05   4.59144048684381414E+05   4.59235781268939725E+05   4.59328507908102183E+05
             4.59421162255673436E+05   4.59513440887614968E+05   4.59605688319570501E+05   4.59698363361948752E+05   4.59791091492653301E+05
             4.59877552578246221E+05   4.59968182928048773E+05   4.60060848524593690E+05   4.60153680249227502E+05   4.60247279749691836E+05
             4.60346269712294335E+05   4.60450208030373789E+05   4.60556683674396423E+05   4.60663159318419057E+05   4.60769634962441691E+05
             4.60874643103660084E+05   4.60980847620011598E+05   4.61087481372438138E+05   4.61194341334549594E+05   4.61301446039228933E+05
             4.61409644735392591E+05   4.61518579737005290E+05   4.61628106905470486E+05   4.61739593387086061E+05   4.61854580180032703E+05
             4.61973954798440449E+05   4.62096614335737657E+05
 ETA=    4   4.11725211278468953E+05   4.11896617382058990E+05   4.12062576072921976E+05   4.12224210158881673E+05   4.12382443590156909E+05
             4.12538017055173288E+05   4.12691472209676111E+05   4.12844228653554572E+05   4.12997451805572375E+05   4.13149309232104337E+05
             4.13299599059971224E+05   4.13448827235552133E+05   4.13596392745792342E+05   4.13741149532394309E+05   4.13881524039099924E+05
             4.14022262631435005E+05   4.14164413334342360E+05   4.14308153274233686E+05   4.14453856798637076E+05   4.14601437530601455E+05
             4.14750598437109264E+05   4.14901296786827850E+05   4.15052279124189692E+05   4.15205815855126362E+05   4.15361493551121443E+05
             4.15519551428644219E+05   4.15681564253703516E+05   4.15851502729168860E+05   4.16034828149494831E+05   4.16230871697333059E+05
             4.16428323488792288E+05   4.16620277004216856E+05   4.16807956736168824E+05   4.16995026007698034E+05   4.17184188139168371E+05
             4.17377136431946245E+05   4.17575533345884294E+05   4.17774579235082259E+05   4.17977633495655609E+05   4.18185126262937440E+05
             4.18397660727367387E+05   4.18616051836349012E+05   4.18841392233373772E+05   4.19075159588856681E+05   4.19319374432664772E+05
             4.19576878848934371E+05   4.19851828581670823E+05   4.20084397899827745E+05   4.20320235592750832E+05   4.20558923814603011E+05
             4.20799926745633886E+05   4.21042479233384307E+05   4.21285355418451130E+05   4.21526698878886411E+05   4.21764419884513831E+05
             4.21996772604018217E+05   4.22221589302325738E+05   4.22443819931393838E+05   4.22669035357999383E+05   4.22925452469373005E+05
             4.23167881166319537E+05   4.23405084773207433E+05   4.23642113133606152E+05   4.23881164777324244E+05   4.24123035287858220E+05
             4.24370011232771794E+05   4.24618897751732380E+05   4.24870651832973526E+05   4.25125507288137218E+05   4.25383214161453187E+05
             4.25643094760585227E+05   4.25899184752282570E+05   4.26156521245314216E+05   4.26412710198812536E+05   4.26665884289123351E+05
             4.26914715931799030E+05   4.27158377420796664E+05   4.27396493693363038E+05   4.27629186275075073E+05   4.27857213585590594E+05
             4.28081779087450821E+05   4.28303801449366030E+05   4.28523819973746722E+05   4.28742223384106997E+05   4.28959154372429708E+05
             4.29175471018820477E+05   4.29392831034785835E+05   4.29612650024848524E+05   4.29835277396415884E+05   4.30059907913126401E+05
             4.30285058705770585E+05   4.30500811349016789E+05   4.30721677490423433E+05   4.30944656685621769E+05   4.31161595587061311E+05
             4.31383199607284507E+05   4.31605025479902979E+05   4.31824583596331300E+05   4.32041173391863762E+05   4.32244605211769871E+05
             4.32451525634500373E+05   4.32656721954849665E+05   4.32863427220346115E+05   4.33068143539858924E+05   4.33270753458784427E+05
             4.33470481118059077E+05   4.33666363234600401E+05   4.33857578031274199E+05   4.34043660997662228E+05   4.34224603748552618E+05
             4.34400651266953675E+05   4.34572370754082804E+05   4.34740525770182663E+05   4.34905511997704918E+05   4.35068397298089985E+05
             4.35230358621257008E+05   4.35398996165154385E+05   4.35566957441116683E+05   4.35734307249476784E+05   4.35902954655474634E+05
             4.36070108264962502E+05   4.36234811862218427E+05   4.36395820651756541E+05   4.36550228891573264E+05   4.36697797123691766E+05
             4.36837539720608038E+05   4.36968800157539255E+05   4.37092429006926599E+05   4.37209212348008063E+05   4.37319640979211370E+05
             4.37424453334814112E+05   4.37521212907725188E+05   4.37617731529067794E+05   4.37711381346441340E+05   4.37801372134409321E+05
             4.37887730961639551E+05   4.37971525838193018E+05   4.38051735909162089E+05   4.38128813220917189E+05   4.38203191435234563E+05
             4.38278750887827890E+05   4.38352456520501757E+05   4.38424656837968971E+05   4.38495730023012205E+05   4.38566078492507164E+05
             4.38636098184698669E+05   4.38706144002531713E+05   4.38776518054380431E+05   4.38847518261962687E+05   4.38919405911323614E+05
             4.38992467615566798E+05   4.39066990189237986E+05   4.39143290465082275E+05   4.39221718743628531E+05   4.39302649162462156E+05
             4.39386470277904882E+05   4.39473562370971777E+05   4.39564203903357557E+05   4.39658490025977255E+05   4.39756318177292531E+05
             4.39857425763078092E+05   4.39961445505089883E+05   4.40067960829762858E+05   4.40176595202815603E+05   4.40287128479570616E+05
             4.40399558263281535E+05   4.40513911893642740E+05   4.40629811799425283E+05   4.40746534995159367E+05   4.40863868456549768E+05
             4.40981794194006827E+05   4.41100378246372391E+05   4.41215454240974970E+05   4.41330254590602999E+05   4.41445154829546285E+05
             4.41560658926455188E+05   4.41677089142260898E+05   4.41794015291952062E+05   4.41910314836527454E+05   4.42026095816610847E+05
             4.42140932100507955E+05   4.42254118995795259E+05   4.42364917707593588E+05   4.42456207915331121E+05   4.42546040945027955E+05
             4.42636368532365886E+05   4.42733677324807562E+05   4.42824203520340146E+05   4.42912178006508155E+05   4.42997939471715363E+05
             4.43081888230498123E+05   4.43164408595045563E+05   4.43245817814158450E+05   4.43326400186846091E+05   4.43406684356538695E+05
             4.43487113194462785E+05   4.43568256323205831E+05   4.43650405142651987E+05   4.43733734616724425E+05   4.43818423686272290E+05
             4.43904687316998781E+05   4.43992738157690910E+05   4.44082695202193514E+05   4.44174540747857885E+05   4.44268152438536694E+05
             4.44363300161553605E+05   4.44459639834021800E+05   4.44556710283962777E+05   4.44653959970368946E+05   4.44750818381080811E+05
             4.44846791386657918E+05   4.44941529862605967E+05   4.45034833940164244E+05   4.45126610036359576E+05   4.45216838575559494E+05
             4.45305578802694799E+05   4.45392969797923462E+05   4.45479231303833541E+05   4.45564660452476470E+05   4.45649616474133276E+05
             4.45734498033182521E+05   4.45819717478934152E+05   4.45905676591968397E+05   4.45992745011227031E+05   4.46081238908985688E+05
             4.46171380739279208E+05   4.46263197947356792E+05   4.46356338097136118E+05   4.46452358798215049E+05   4.46550366499692260E+05
             4.46650016859614349E+05   4.46750915467721876E+05   4.46852681863529724E+05   4.46954984629397688E+05   4.47057560932541615E+05
             4.47160227351389593E+05   4.47262867896054813E+05   4.47365388400001917E+05   4.47467638000021456E+05   4.47569312326376908E+05
             4.47669865636795817E+05   4.47768487159538723E+05   4.47864145424808841E+05   4.47956156238985772E+05   4.48044608373700583E+05
             4.48130458773444465E+05   4.48214863565493491E+05   4.48298590209408430E+05   4.48381879247244156E+05   4.48464657910290291E+05
             4.48546772016957751E+05   4.48628097508065403E+05   4.48708563511643442E+05   4.48788145566338149E+05   4.48866857728374016E+05
             4.48944746868546528E+05   4.49021924367328931E+05   4.49098619518486434E+05   4.49174393445829162E+05   4.49249535038979899E+05
             4.49324097341365821E+05   4.49398126524871215E+05   4.49471659194971959E+05   4.49544721026713261E+05   4.49617330937087885E+05
             4.49689528775583603E+05   4.49761478744754975E+05   4.49832814282438485E+05   4.49903634358407173E+05   4.49973937210129807E+05
             4.50043735292090860E+05   4.50113041608896281E+05   4.50181838161862106E+05   4.50249989833782252E+05   4.50317024071246444E+05
             4.50381752113864175E+05   4.50442091788224119E+05   4.50507065241095959E+05   4.50571142534077633E+05   4.50634559613970050E+05
             4.50697330854076135E+05   4.50759308340993302E+05   4.50820719624844729E+05   4.50881723016905773E+05   4.50942528765615716E+05
             4.51003410420083732E+05   4.51064706967673672E+05   4.51126812461283873E+05   4.51190145782236708E+05   4.51255086522960919E+05
             4.51321841038017592E+05   4.51373661361968261E+05   4.51424242797684507E+05   4.51473668398579408E+05   4.51523996066517546E+05
             4.51573377945038897E+05   4.51622433787700604E+05   4.51670695919857710E+05   4.51718308409662801E+05   4.51765393861543329E+05
             4.51812039416082844E+05   4.51858982603618701E+05   4.51905614906279778E+05   4.51953286784767231E+05   4.52001014124932233E+05
             4.52048930848442484E+05   4.52097129342590284E+05   4.52145664667645236E+05   4.52194562659875141E+05   4.52243818713393295E+05
             4.52293370136490208E+05   4.52343074614849058E+05   4.52392700852712849E+05   4.52441941140053154E+05   4.52490505541629682E+05
             4.52539181714037375E+05   4.52588332707351539E+05   4.52639618123588793E+05   4.52692397401470342E+05   4.52746669946569367E+05
             4.52802324157777301E+05   4.52858970075077377E+05   4.52916799188055098E+05   4.52975961623999523E+05   4.53036555864434340E+05
             4.53098639481050253E+05   4.53162976794053335E+05   4.53229017169550934E+05   4.53296759004479740E+05   4.53366179322140582E+05
             4.53437430444554775E+05   4.53510237801981391E+05   4.53584849991774070E+05   4.53661073662091687E+05   4.53738851952144352E+05
             4.53818489583821385E+05   4.53899801843369030E+05   4.53982781612587976E+05   4.54067598974510329E+05   4.54154000382068916E+05
             4.54242021259071538E+05   4.54331718095867429E+05   4.54422870976812206E+05   4.54515954044676328E+05   4.54611235607125040E+05
             4.54708945694705530E+05   4.54809245976919134E+05   4.54912128306667379E+05   4.55015934539228678E+05   4.55121455483093217E+05
             4.55228196469692513E+05   4.55335587374893541E+05   4.55442914768087154E+05   4.55549363209878968E+05   4.55654093527999474E+05
             4.55756558770600299E+05   4.55856582764363033E+05   4.55954250225508877E+05   4.56049812560916529E+05   4.56143585443127609E+05
             4.56235739767031104E+05   4.56326114028101263E+05   4.56414608766039484E+05   4.56501150929115771E+05   4.56568311303950788E+05
             4.56658761350659945E+05   4.56748362070573901E+05   4.56836797585503897E+05   4.56924681641798990E+05   4.57012313809649204E+05
             4.57099819838775788E+05   4.57187238634353969E+05   4.57274149366898579E+05   4.57361163968514360E+05   4.57448258402309497E+05
             4.57535435791521973E+05   4.57645936714054435E+05   4.57747761104634614E+05   4.57850159793582628E+05   4.57951181473362958E+05
             4.58050155958009942E+05   4.58147250960278383E+05   4.58242842206927889E+05   4.58337365019441699E+05   4.58431355939774367E+05
             4.58525036916406360E+05   4.58618105707737559E+05   4.58709678385742358E+05   4.58798572738222952E+05   4.58884299768350378E+05
             4.58967529400644067E+05   4.59048967657552799E+05   4.59128912576026341E+05   4.59207453059038264E+05   4.59284645437467261E+05
             4.59360750466161582E+05   4.59436546004341100E+05   4.59513029273862718E+05   4.59591169353812584E+05   4.59671764748963004E+05
             4.59755123502956470E+05   4.59840864268667996E+05   4.59928442652002850E+05   4.60017247127983544E+05   4.60106615971449122E+05
             4.60196072460928466E+05   4.60285550390799181E+05   4.60375399605403480E+05   4.60466008400737366E+05   4.60557103778146266E+05
             4.60637797775934683E+05   4.60725564121405827E+05   4.60816116518716968E+05   4.60907045789094933E+05   4.60992697244506388E+05
             4.61087065135233104E+05   4.61188220318821433E+05   4.61293156131533033E+05   4.61398091944244632E+05   4.61503027756956231E+05
             4.61604049414464214E+05   4.61707928705308761E+05   4.61812725482292823E+05   4.61917581263425935E+05   4.62022141451151576E+05
             4.62125703362099361E+05   4.62230781320381793E+05   4.62337636266885966E+05   4.62447095778927905E+05   4.62560640414036810E+05
             4.62679298998241837E+05   4.62802023871788522E+05
 ETA=    5   4.12010590482005093E+05   4.12183055727637256E+05   4.12352163536442968E+05   4.12518221048863488E+05   4.12681528926238127E+05
             4.12842455980818369E+05   4.13001341044269386E+05   4.13159508233424218E+05   4.13319312791731965E+05   4.13477012550169078E+05
             4.13632603652093268E+05   4.13786602328275912E+05   4.13938600410564221E+05   4.14087825297334115E+05   4.14232248360613768E+05
             4.14377161909135815E+05   4.14522808252700721E+05   4.14669358666964166E+05   4.14817322123446153E+05   4.14966818267310038E+05
             4.15117738842697523E+05   4.15270098854099750E+05   4.15421552333655651E+05   4.15576361247843364E+05   4.15733378939025628E+05
             4.15892552653655177E+05   4.16055141935091116E+05   4.16224573221029539E+05   4.16405878835847543E+05   4.16599478186849679E+05
             4.16794218970019720E+05   4.16984479009859380E+05   4.17171262840141135E+05   4.17357583846325404E+05   4.17545671981307387E+05
             4.17736977116394672E+05   4.17933011898937519E+05   4.18129489605940937E+05   4.18329456282778177E+05   4.18533343726686900E+05
             4.18741715864756785E+05   4.18955298797465977E+05   4.19175029655999446E+05   4.19402108900345745E+05   4.19638030796184146E+05
             4.19884592097903311E+05   4.20143885393067438E+05   4.20376667520253221E+05   4.20610461612225161E+05   4.20845546379683132E+05
             4.21081886884269887E+05   4.21319135034522333E+05   4.21556466994352872E+05   4.21792427001903940E+05   4.22025206218284846E+05
             4.22253167372397613E+05   4.22475036208873382E+05   4.22699162265366176E+05   4.22925283848326013E+05   4.23183094610042812E+05
             4.23422134432764724E+05   4.23658058979676804E+05   4.23894333203025686E+05   4.24132910063960124E+05   4.24374470665502071E+05
             4.24621513852035569E+05   4.24870327253888652E+05   4.25121913513940177E+05   4.25376603179717669E+05   4.25634300591631851E+05
             4.25894518644892902E+05   4.26153796127881855E+05   4.26413498540172761E+05   4.26672077701059752E+05   4.26928082529119973E+05
             4.27180431681865768E+05   4.27428594639997871E+05   4.27672655716876267E+05   4.27913298841956770E+05   4.28151685525323730E+05
             4.28388874585240381E+05   4.28624620482116588E+05   4.28858144336987054E+05   4.29088887576215144E+05   4.29316583211870282E+05
             4.29542213973587786E+05   4.29768025763480808E+05   4.29996005278716737E+05   4.30226958308621426E+05   4.30460375223688490E+05
             4.30694746336586075E+05   4.30916899183202884E+05   4.31144942865453020E+05   4.31375069437623431E+05   4.31596241206170875E+05
             4.31823038649301510E+05   4.32050090714955411E+05   4.32274504590568307E+05   4.32495445118037576E+05   4.32701961340950860E+05
             4.32913211777110002E+05   4.33122915844226140E+05   4.33334288819185982E+05   4.33543416769104020E+05   4.33750330834053922E+05
             4.33954203093775723E+05   4.34154114540393639E+05   4.34349258007025521E+05   4.34539125699869648E+05   4.34723820830989105E+05
             4.34903379219203140E+05   4.35078302839029464E+05   4.35249334249016945E+05   4.35417297396357055E+05   4.35583233044660941E+05
             4.35748127063987427E+05   4.35920064029865782E+05   4.36091574900328356E+05   4.36262604150780477E+05   4.36435724070115772E+05
             4.36608000724450801E+05   4.36778633654279343E+05   4.36946562591012625E+05   4.37109184486920829E+05   4.37266145108271623E+05
             4.37416370059192472E+05   4.37558958051117836E+05   4.37694868101409345E+05   4.37824504679355014E+05   4.37947926691036904E+05
             4.38065546745876432E+05   4.38173078595246479E+05   4.38281011562852480E+05   4.38386023430235684E+05   4.38487005852358707E+05
             4.38583822888917872E+05   4.38678009335352457E+05   4.38767701312945224E+05   4.38853538941849314E+05   4.38936075681094022E+05
             4.39019713165234425E+05   4.39101254975578806E+05   4.39181093938553240E+05   4.39259641576870461E+05   4.39337326067803195E+05
             4.39414554534089577E+05   4.39491675715338613E+05   4.39568974888783123E+05   4.39646712216089014E+05   4.39725134468591074E+05
             4.39804506846572098E+05   4.39885104418734962E+05   4.39967205232522916E+05   4.40051089309830859E+05   4.40137042612224235E+05
             4.40225380359005707E+05   4.40316483524270356E+05   4.40410656675845967E+05   4.40507987730694760E+05   4.40608387023864256E+05
             4.40711635920699104E+05   4.40817433023593505E+05   4.40925436608754157E+05   4.41035322914445598E+05   4.41146862838429515E+05
             4.41259965493450523E+05   4.41374556555878953E+05   4.41490292273988714E+05   4.41606635185995896E+05   4.41723536652507784E+05
             4.41841015487089928E+05   4.41959068899470672E+05   4.42074757284140389E+05   4.42190399642348289E+05   4.42306280747431680E+05
             4.42422767626020941E+05   4.42540170920427947E+05   4.42658346006397274E+05   4.42776668403454707E+05   4.42894858864946989E+05
             4.43012554721918830E+05   4.43129217640721472E+05   4.43244240451250342E+05   4.43338796324873518E+05   4.43431601660725835E+05
             4.43524037587679632E+05   4.43625415286713396E+05   4.43720543457725085E+05   4.43812447033521603E+05   4.43901597716109885E+05
             4.43988473248666851E+05   4.44073518055506458E+05   4.44157127456100658E+05   4.44239681586621213E+05   4.44321975887421810E+05
             4.44403852578438004E+05   4.44485899335629540E+05   4.44568463444848720E+05   4.44651757495577331E+05   4.44735960037301818E+05
             4.44821261747894518E+05   4.44907854563301662E+05   4.44995865739830653E+05   4.45085300956703315E+05   4.45176049698016315E+05
             4.45267913055441575E+05   4.45360620970862627E+05   4.45453836347037519E+05   4.45547168401909352E+05   4.45640210639489756E+05
             4.45732595861070149E+05   4.45824040319607768E+05   4.45914348533056560E+05   4.46003380726493197E+05   4.46091032702837372E+05
             4.46177269837549480E+05   4.46262154711064068E+05   4.46345849214444577E+05   4.46428602131606312E+05   4.46510730270758679E+05
             4.46592596606323263E+05   4.46674586648845638E+05   4.46757084706330381E+05   4.46840452210035408E+05   4.46925007297893753E+05
             4.47010990909511165E+05   4.47098477923979808E+05   4.47187189417914778E+05   4.47278143780034268E+05   4.47370851245155325E+05
             4.47464980010529864E+05   4.47560154001619841E+05   4.47656017897726269E+05   4.47752274431898550E+05   4.47848707176402677E+05
             4.47945189466586977E+05   4.48041667856977379E+05   4.48138113573134819E+05   4.48234446823858772E+05   4.48330446414794482E+05
             4.48425664933272230E+05   4.48519394016148639E+05   4.48610755827923655E+05   4.48699076042439847E+05   4.48784284556969476E+05
             4.48867016120159766E+05   4.48948181317270210E+05   4.49028459109496383E+05   4.49108131019982975E+05   4.49187209243904508E+05
             4.49265608150933404E+05   4.49343240876689670E+05   4.49420050755912438E+05   4.49496015225457319E+05   4.49571144676136319E+05
             4.49645487675435375E+05   4.49719168637787167E+05   4.49792483815235435E+05   4.49865182965315063E+05   4.49937305783127551E+05
             4.50008907543299370E+05   4.50080035802056897E+05   4.50150726254937355E+05   4.50221000831325538E+05   4.50290873141644872E+05
             4.50360379489550542E+05   4.50429669287970988E+05   4.50498560326865234E+05   4.50566943559016334E+05   4.50634816821066430E+05
             4.50702184632152610E+05   4.50769051683390688E+05   4.50835399879365519E+05   4.50901119201933092E+05   4.50965820867614588E+05
             4.51028493735307071E+05   4.51087260007375211E+05   4.51149921338964719E+05   4.51211935366262740E+05   4.51273542464590631E+05
             4.51334771219657967E+05   4.51395528981191688E+05   4.51455986681364826E+05   4.51516291146376811E+05   4.51576628746052622E+05
             4.51637230247971136E+05   4.51698364943172142E+05   4.51760321420188760E+05   4.51823373819936474E+05   4.51887734079354443E+05
             4.51953489054467471E+05   4.52006623397334828E+05   4.52058744549042603E+05   4.52109912218362151E+05   4.52162210155938868E+05
             4.52213723459130386E+05   4.52265053062618477E+05   4.52315687907424988E+05   4.52365741195741750E+05   4.52415304117115156E+05
             4.52464435358613671E+05   4.52513868079078558E+05   4.52562957839121111E+05   4.52613074982233171E+05   4.52663202273108356E+05
             4.52713473232718185E+05   4.52763981098093907E+05   4.52814782537686697E+05   4.52865906612381106E+05   4.52917357864267193E+05
             4.52969098436507978E+05   4.53021033490741975E+05   4.53073004208098864E+05   4.53124795088280691E+05   4.53176197215483757E+05
             4.53227990470199089E+05   4.53280246029621107E+05   4.53334123330734146E+05   4.53389045020896243E+05   4.53445283391311648E+05
             4.53502733912352764E+05   4.53561041590218025E+05   4.53620368323854171E+05   4.53680838644411240E+05   4.53742546478434873E+05
             4.53805548658705899E+05   4.53870513999082206E+05   4.53936967917906353E+05   4.54004929214563279E+05   4.54074393123447779E+05
             4.54145504194070003E+05   4.54218059124573716E+05   4.54292271674525051E+05   4.54367999749484472E+05   4.54445215894185996E+05
             4.54524156689393276E+05   4.54604686635590391E+05   4.54686819733961020E+05   4.54771348629678774E+05   4.54856884912911628E+05
             4.54943748706822284E+05   4.55032103297226655E+05   4.55121715512312890E+05   4.55212995441501203E+05   4.55306044296004344E+05
             4.55400970383872453E+05   4.55497866785222141E+05   4.55596787838565535E+05   4.55696192454891629E+05   4.55796963620864437E+05
             4.55898772324924008E+05   4.56001217385052121E+05   4.56103790996232128E+05   4.56205899175567727E+05   4.56306958250013064E+05
             4.56406527812225802E+05   4.56504385891807673E+05   4.56600531659058703E+05   4.56695135228577070E+05   4.56788448650646955E+05
             4.56880556583587138E+05   4.56971160891241860E+05   4.57059901564199070E+05   4.57146202062305412E+05   4.57228237669482594E+05
             4.57315462220079091E+05   4.57404184259383823E+05   4.57493212413604197E+05   4.57582409508806013E+05   4.57671814924097969E+05
             4.57761424407464627E+05   4.57851161152484477E+05   4.57940424296058598E+05   4.58029769929178176E+05   4.58118945197703200E+05
             4.58207659495921980E+05   4.58317169033683604E+05   4.58422556868698972E+05   4.58528852904092055E+05   4.58633911416278919E+05
             4.58736980145459005E+05   4.58838140885910892E+05   4.58937707387003233E+05   4.59036058709479054E+05   4.59133667351965792E+05
             4.59230777281975956E+05   4.59327236597575597E+05   4.59422419223414850E+05   4.59515359110442689E+05   4.59605478535455070E+05
             4.59693128437631356E+05   4.59778842666931800E+05   4.59862916271372407E+05   4.59945480116931663E+05   4.60026617746550357E+05
             4.60106559966076748E+05   4.60185960023882915E+05   4.60265683641195006E+05   4.60346593012475059E+05   4.60429375613948912E+05
             4.60514205529486702E+05   4.60600576027872681E+05   4.60687931186301517E+05   4.60775837924789696E+05   4.60863953699771722E+05
             4.60952093605951697E+05   4.61040310664137534E+05   4.61128966168954037E+05   4.61218444204819622E+05   4.61308494807811687E+05
             4.61384838265241415E+05   4.61470581706148165E+05   4.61559818340524100E+05   4.61649601359370106E+05   4.61729246161454765E+05
             4.61820204269623267E+05   4.61919280485930503E+05   4.62022914037241659E+05   4.62126547588552814E+05   4.62230181139863969E+05
             4.62328123646288703E+05   4.62430229562610853E+05   4.62533665779224597E+05   4.62637145435531042E+05   4.62740108482548618E+05
             4.62840122316260124E+05   4.62941842364883225E+05   4.63046513613112853E+05   4.63154387840499403E+05   4.63266805945195374E+05
             4.63384842550311179E+05   4.63507441685238213E+05
 ETA=    6   4.12304557809078309E+05   4.12476948086155287E+05   4.12647182205561025E+05   4.12815420483401918E+05   4.12981637375443941E+05
             4.13145885808056162E+05   4.13308249072834325E+05   4.13469876493833319E+05   4.13634050909941958E+05   4.13796140053019975E+05
             4.13956028913905378E+05   4.14114075672996871E+05   4.14270047830798838E+05   4.14423627746828774E+05   4.14573861385282187E+05
             4.14723598283832252E+05   4.14873408599069924E+05   4.15023596749359102E+05   4.15174692860687792E+05   4.15326906635124527E+05
             4.15480270575023897E+05   4.15634900594726263E+05   4.15788584940712783E+05   4.15945303583969711E+05   4.16104104879444814E+05
             4.16264885643227666E+05   4.16428562068405387E+05   4.16597850412654865E+05   4.16776996098604752E+05   4.16968214827852091E+05
             4.17159513004618930E+05   4.17347485744779988E+05   4.17533148792701948E+05   4.17718764322381059E+05   4.17905957160861406E+05
             4.18095782191220205E+05   4.18289388664425351E+05   4.18483895920653071E+05   4.18681519945213513E+05   4.18882671776763978E+05
             4.19087851520027558E+05   4.19297663278038963E+05   4.19512832635201863E+05   4.19734195283566427E+05   4.19962614900063723E+05
             4.20198812119888782E+05   4.20443086308233615E+05   4.20673548482941347E+05   4.20904941418301139E+05   4.21137244564277586E+05
             4.21370379099271609E+05   4.21604087101287267E+05   4.21837726537140319E+05   4.22070063478439581E+05   4.22299477457291796E+05
             4.22524631640105916E+05   4.22744906310757855E+05   4.22967065786185092E+05   4.23190825648706581E+05   4.23441733846878051E+05
             4.23676366565235076E+05   4.23911012134593446E+05   4.24146532279440959E+05   4.24384634393058484E+05   4.24625885104681249E+05
             4.24872658467722940E+05   4.25121240634916699E+05   4.25372587119522272E+05   4.25626989296758431E+05   4.25884372557596362E+05
             4.26144369741282077E+05   4.26405175952360209E+05   4.26666320439339441E+05   4.26926759192180645E+05   4.27185328462775622E+05
             4.27441123746859550E+05   4.27693803571847791E+05   4.27943731033718272E+05   4.28191961229459499E+05   4.28440075902526092E+05
             4.28689426018997736E+05   4.28937841978679178E+05   4.29183772106715362E+05   4.29426149001824961E+05   4.29664375898085767E+05
             4.29899020939301641E+05   4.30132890342618630E+05   4.30368442343479954E+05   4.30606882583842555E+05   4.30848075077675458E+05
             4.31090698345317913E+05   4.31319912116667256E+05   4.31555059510239400E+05   4.31791786838566302E+05   4.32017000508772500E+05
             4.32248437609405431E+05   4.32480276053032081E+05   4.32709298543440411E+05   4.32934515100630175E+05   4.33146547673987574E+05
             4.33363238491094147E+05   4.33578247754397977E+05   4.33793537152680277E+05   4.34006514721617335E+05   4.34217859936594847E+05
             4.34426282349776768E+05   4.34630857391847007E+05   4.34830787945334683E+05   4.35025380331174820E+05   4.35215116626395087E+05
             4.35399470001821872E+05   4.35578918439004978E+05   4.35754196248334891E+05   4.35926251564346137E+05   4.36096165555369807E+05
             4.36264918163211725E+05   4.36440223389785737E+05   4.36615295960279531E+05   4.36789997038245259E+05   4.36966787662176357E+05
             4.37143154425204382E+05   4.37318436081599211E+05   4.37491761976847309E+05   4.37660669594557257E+05   4.37825240909647138E+05
             4.37984389213302115E+05   4.38137125331500254E+05   4.38284275753525901E+05   4.38426054133107187E+05   4.38562228102181165E+05
             4.38692919174995797E+05   4.38811777587369550E+05   4.38932330273079453E+05   4.39050221049901680E+05   4.39163964786132274E+05
             4.39273175823332451E+05   4.39379813493753492E+05   4.39481017871675838E+05   4.39577648389813316E+05   4.39670335502251866E+05
             4.39763810707067722E+05   4.39855006700953294E+05   4.39944339759528229E+05   4.40032222781713528E+05   4.40119073716905667E+05
             4.40205279674601159E+05   4.40291157550033939E+05   4.40376951701214304E+05   4.40462869746199809E+05   4.40549119389813044E+05
             4.40635936437676835E+05   4.40723574840969290E+05   4.40812267024050350E+05   4.40902204554026132E+05   4.40993552182821324E+05
             4.41086518878375296E+05   4.41181551124925783E+05   4.41279090079983289E+05   4.41379239358048479E+05   4.41481917243738775E+05
             4.41586935962911230E+05   4.41694048740999890E+05   4.41802981377201853E+05   4.41913465377957502E+05   4.42025278598255420E+05
             4.42138264650965633E+05   4.42252253569742199E+05   4.42366897251041606E+05   4.42481789081953524E+05   4.42597168893932190E+05
             4.42713165588067553E+05   4.42829760343739588E+05   4.42944793691892643E+05   4.43059904969473311E+05   4.43175323582861281E+05
             4.43291251384385920E+05   4.43408004183841054E+05   4.43525606070471636E+05   4.43643753871872381E+05   4.43762126106205629E+05
             4.43880380947172467E+05   4.43998093486703117E+05   4.44114765950760746E+05   4.44212844557151897E+05   4.44309245201554266E+05
             4.44405092530607653E+05   4.44509969498695398E+05   4.44609228115702805E+05   4.44704597764784296E+05   4.44796812717601133E+05
             4.44886396267049015E+05   4.44973823210038536E+05   4.45059544926973700E+05   4.45144023646240588E+05   4.45228697908347764E+05
             4.45312238423322851E+05   4.45395396798395552E+05   4.45478618976110709E+05   4.45562154200390796E+05   4.45646173844919424E+05
             4.45730845265037206E+05   4.45816347455547657E+05   4.45902816424623772E+05   4.45990277645176218E+05   4.46078641909349477E+05
             4.46167744562225882E+05   4.46257374821960169E+05   4.46347283515285468E+05   4.46437189111627697E+05   4.46526798819612595E+05
             4.46615844531358569E+05   4.46704115507853276E+05   4.46791457893934392E+05   4.46877729308980866E+05   4.46962769644023210E+05
             4.47046466680306068E+05   4.47128808623117686E+05   4.47209891257328389E+05   4.47289905325161642E+05   4.47369120427255461E+05
             4.47447867577372468E+05   4.47526518502490711E+05   4.47605461268342973E+05   4.47685074496694666E+05   4.47765702516513411E+05
             4.47847624492485251E+05   4.47930986051917658E+05   4.48015641951797588E+05   4.48102076529219572E+05   4.48190030344443745E+05
             4.48279182112132199E+05   4.48369178643671330E+05   4.48459690472217044E+05   4.48550445946266700E+05   4.48641255603684520E+05
             4.48732022244991560E+05   4.48822724742378865E+05   4.48913371700989199E+05   4.49003932494082022E+05   4.49094257798397914E+05
             4.49184005372168496E+05   4.49272606352916395E+05   4.49359342584784492E+05   4.49443608858479653E+05   4.49525241031425598E+05
             4.49604632651748019E+05   4.49682463352206512E+05   4.49759302167052811E+05   4.49835435698596993E+05   4.49910926810343750E+05
             4.49985733991273446E+05   4.50059793359417585E+05   4.50133055466797785E+05   4.50205497268089151E+05   4.50277125262110203E+05
             4.50347982428878604E+05   4.50418186505019548E+05   4.50488055797328474E+05   4.50557760445659573E+05   4.50626906095647544E+05
             4.50695564448595454E+05   4.50763791151156591E+05   4.50831624983872287E+05   4.50899085870201408E+05   4.50966178218339628E+05
             4.51032917945029214E+05   4.51099435094982910E+05   4.51165899255461583E+05   4.51231855184683634E+05   4.51297309648751107E+05
             4.51362272878074553E+05   4.51426754059025436E+05   4.51490745603844058E+05   4.51554168870278634E+05   4.51616716307963245E+05
             4.51677537777956109E+05   4.51734942803349637E+05   4.51795517109192151E+05   4.51855647009044304E+05   4.51915562041570491E+05
             4.51975297067269101E+05   4.52034807083924359E+05   4.52094205185799743E+05   4.52153616685331333E+05   4.52213193433262175E+05
             4.52273117283348402E+05   4.52333594719340617E+05   4.52394842361419811E+05   4.52457066901767859E+05   4.52520446610472864E+05
             4.52585120833674562E+05   4.52639568763566611E+05   4.52693228250419139E+05   4.52746135663909314E+05   4.52800399625532096E+05
             4.52854038925080909E+05   4.52907635703964741E+05   4.52960636372270819E+05   4.53013123858139210E+05   4.53065158391205012E+05
             4.53116770519256184E+05   4.53168688743067556E+05   4.53220233415796014E+05   4.53272794261040399E+05   4.53325321676715277E+05
             4.53377948844047962E+05   4.53430770034461981E+05   4.53483843835553154E+05   4.53537202781879983E+05   4.53590860391247494E+05
             4.53644803177125286E+05   4.53698983374431380E+05   4.53753314787948970E+05   4.53807675349294674E+05   4.53861939310794114E+05
             4.53916881205112673E+05   4.53972264617361303E+05   4.54028694137834420E+05   4.54085801156393776E+05   4.54144060988735117E+05
             4.54203377266150666E+05   4.54263424497466593E+05   4.54324334187539993E+05   4.54386208089523425E+05   4.54449131291406113E+05
             4.54513160556100658E+05   4.54578897513788950E+05   4.54645913608814590E+05   4.54714247656698106E+05   4.54783912252127891E+05
             4.54855050864230841E+05   4.54927526051188819E+05   4.55001535861704731E+05   4.55076980523436680E+05   4.55153853051277576E+05
             4.55232340504931926E+05   4.55312346872338559E+05   4.55393896368806891E+05   4.55477817930478312E+05   4.55562616752753034E+05
             4.55648606228776916E+05   4.55735945439336239E+05   4.55824362789510633E+05   4.55914200160805660E+05   4.56005451442402555E+05
             4.56098134470687481E+05   4.56192288634754252E+05   4.56287969360508258E+05   4.56383740562840481E+05   4.56480495124666078E+05
             4.56578003936486260E+05   4.56675989217989380E+05   4.56774100725689728E+05   4.56871930541443871E+05   4.56969092228265479E+05
             4.57065290401612176E+05   4.57160367782426241E+05   4.57254319083428767E+05   4.57347256636839360E+05   4.57439355787392997E+05
             4.57530688888407138E+05   4.57621062194144761E+05   4.57710262885124888E+05   4.57798150687271031E+05   4.57884920927750529E+05
             4.57973076018126798E+05   4.58062256827440346E+05   4.58152060977833637E+05   4.58242351969167183E+05   4.58333103732070886E+05
             4.58424254781574768E+05   4.58515666293184506E+05   4.58606571201123821E+05   4.58697552912183804E+05   4.58788202574025549E+05
             4.58878025875559018E+05   4.58984063753335970E+05   4.59089361704422045E+05   4.59196525312280632E+05   4.59303049351111636E+05
             4.59407948893289140E+05   4.59511139189518406E+05   4.59612828581525362E+05   4.59713305807386525E+05   4.59812941162656643E+05
             4.59911982224986947E+05   4.60010432820636139E+05   4.60107955169896828E+05   4.60203857106128242E+05   4.60297525690815877E+05
             4.60388979944498045E+05   4.60478516722630127E+05   4.60566374802786799E+05   4.60652708228944975E+05   4.60737640700721415E+05
             4.60821396481774980E+05   4.60904505457429215E+05   4.60987698671959573E+05   4.61071739421743609E+05   4.61157224153006158E+05
             4.61244222625308030E+05   4.61332134723404539E+05   4.61420403823114175E+05   4.61508719732064987E+05   4.61596928495492786E+05
             4.61685002297132916E+05   4.61773043110724539E+05   4.61861400457390351E+05   4.61950452201177308E+05   4.62039971595932497E+05
             4.62113939158833819E+05   4.62198602467794728E+05   4.62287281185562781E+05   4.62376704748753633E+05   4.62452982418704138E+05
             4.62542052588771214E+05   4.62639924952463713E+05   4.62742708653181966E+05   4.62845492353900219E+05   4.62948276054618473E+05
             4.63044255506676272E+05   4.63145225524575391E+05   4.63247804746677051E+05   4.63350486553468625E+05   4.63452647872305824E+05
             4.63550561500547803E+05   4.63649974688302784E+05   4.63753195480648486E+05   4.63860020873959060E+05   4.63971641292934772E+05
             4.64089121904054773E+05   4.64211394435229129E+05
 ETA=    7   4.12601991931662837E+05   4.12773676898443664E+05   4.12944227065631014E+05   4.13113701930559764E+05   4.13281867272916192E+05
             4.13448553150413441E+05   4.13613638283412030E+05   4.13778094384266704E+05   4.13945015021700936E+05   4.14110481128435466E+05
             4.14274153140416136E+05   4.14436135557300411E+05   4.14596220018598484E+05   4.14754237754465837E+05   4.14909288215423119E+05
             4.15063576326928043E+05   4.15217633961106010E+05   4.15371760968608607E+05   4.15526424563725828E+05   4.15681865465938696E+05
             4.15838207072084770E+05   4.15995614586523152E+05   4.16152430782990647E+05   4.16311689080476062E+05   4.16472811219334544E+05
             4.16635762765761407E+05   4.16801150702052459E+05   4.16970846747253148E+05   4.17148712768096710E+05   4.17337670745932031E+05
             4.17525776292115683E+05   4.17711584724400076E+05   4.17896180230404309E+05   4.18081212145669793E+05   4.18267810182323272E+05
             4.18456701838154346E+05   4.18648653497308202E+05   4.18841835563179280E+05   4.19037870451594761E+05   4.19237128814477066E+05
             4.19440032846639690E+05   4.19647053130579996E+05   4.19858701190542371E+05   4.20075479456728033E+05   4.20297749408763426E+05
             4.20525529911710473E+05   4.20758266912179883E+05   4.20985805219577800E+05   4.21214643766943365E+05   4.21444521289844182E+05
             4.21675226111172291E+05   4.21906466626772250E+05   4.22137655170344689E+05   4.22367664353557979E+05   4.22594959675530321E+05
             4.22818385104112036E+05   4.23037857055964938E+05   4.23258320222661830E+05   4.23479589103722072E+05   4.23722093828195182E+05
             4.23950101073498139E+05   4.24190951411483693E+05   4.24430712332356954E+05   4.24671750840722816E+05   4.24915045837295998E+05
             4.25162527191827947E+05   4.25412006252236024E+05   4.25663993510968110E+05   4.25918638197843567E+05   4.26175852174306230E+05
             4.26435338476673816E+05   4.26695936507942679E+05   4.26957176346893364E+05   4.27218272467408795E+05   4.27478480765415239E+05
             4.27737331750469864E+05   4.27994712498137204E+05   4.28250712078870449E+05   4.28505517482017109E+05   4.28759574520673079E+05
             4.29016908129841380E+05   4.29269222652093449E+05   4.29519839046000387E+05   4.29767424646034429E+05   4.30011815599083086E+05
             4.30251573501884355E+05   4.30491834296603512E+05   4.30733966111654590E+05   4.30978599374752666E+05   4.31225506615084538E+05
             4.31473607702884183E+05   4.31713531230268709E+05   4.31951119882326340E+05   4.32188797221026791E+05   4.32420335581496649E+05
             4.32655312301560945E+05   4.32890367066003149E+05   4.33123428958039556E+05   4.33353950821803883E+05   4.33579433318180381E+05
             4.33803502029488969E+05   4.34025244044173800E+05   4.34243640115829941E+05   4.34458945548682590E+05   4.34673280730631028E+05
             4.34885239320392022E+05   4.35093948141704954E+05   4.35298692804945225E+05   4.35498367552680196E+05   4.35693948990584002E+05
             4.35883940152878233E+05   4.36069247503069637E+05   4.36250473782085232E+05   4.36428536957651144E+05   4.36604568158613984E+05
             4.36779564227327763E+05   4.36958047741416260E+05   4.37137120384580630E+05   4.37316201238156471E+05   4.37496444103413494E+05
             4.37675879174573929E+05   4.37854615081407537E+05   4.38031990551914321E+05   4.38205749623517506E+05   4.38376661457532959E+05
             4.38543606847815507E+05   4.38705856738152273E+05   4.38863532830472803E+05   4.39016896891493408E+05   4.39165547266710608E+05
             4.39309366184906277E+05   4.39439944046374236E+05   4.39573953979508777E+05   4.39705876877172559E+05   4.39833849847990146E+05
             4.39957193528895266E+05   4.40077906837101677E+05   4.40192329363372235E+05   4.40301615146558324E+05   4.40406367846524692E+05
             4.40511122665287869E+05   4.40613449812091421E+05   4.40713792959289160E+05   4.40812550447914575E+05   4.40910102630376292E+05
             4.41006791225900350E+05   4.41102880972437619E+05   4.41198555784380820E+05   4.41293953630650358E+05   4.41389219555150834E+05
             4.41484549747407611E+05   4.41580177225094114E+05   4.41676290028894669E+05   4.41772977365275437E+05   4.41870231915586803E+05
             4.41968054512209259E+05   4.42066982490806957E+05   4.42167781862823525E+05   4.42270586753748008E+05   4.42375325094111380E+05
             4.42481830434073461E+05   4.42589896489380102E+05   4.42699303306835762E+05   4.42809833998829010E+05   4.42921288865100069E+05
             4.43033480363286450E+05   4.43146165291997080E+05   4.43258938958567160E+05   4.43371385682275693E+05   4.43484226914815488E+05
             4.43597742479171546E+05   4.43711920439695881E+05   4.43825081381780852E+05   4.43938356040743412E+05   4.44051988625223690E+05
             4.44165886290444469E+05   4.44280558020855475E+05   4.44396095511435706E+05   4.44512352044077241E+05   4.44629066841278865E+05
             4.44745937876576558E+05   4.44862634496974468E+05   4.44978770443812246E+05   4.45080025079680490E+05   4.45179934993478004E+05
             4.45279045705454133E+05   4.45387036630512332E+05   4.45490138880973449E+05   4.45588615037594223E+05   4.45683791672647814E+05
             4.45776123157842201E+05   4.45866030916868302E+05   4.45953957784126047E+05   4.46040388322807732E+05   4.46128013367919193E+05
             4.46213335085466912E+05   4.46297596862774983E+05   4.46381423085385701E+05   4.46465111197076913E+05   4.46548827196452534E+05
             4.46632715084562195E+05   4.46716937084054982E+05   4.46801635276865389E+05   4.46886864831082174E+05   4.46972581641187950E+05
             4.47058676162914257E+05   4.47145001969078963E+05   4.47231384031188674E+05   4.47317622441112704E+05   4.47403507411368308E+05
             4.47488849713394011E+05   4.47573514059425273E+05   4.47657419356069062E+05   4.47740473823233275E+05   4.47822520442560082E+05
[...]
             0.00000000000000000E+00   0.00000000000000000E+00   0.00000000000000000E+00   0.00000000000000000E+00   0.00000000000000000E+00
             0.00000000000000000E+00   0.00000000000000000E+00   0.00000000000000000E+00   0.00000000000000000E+00   0.00000000000000000E+00
             0.00000000000000000E+00   0.00000000000000000E+00   0.00000000000000000E+00   0.00000000000000000E+00   0.00000000000000000E+00
             0.00000000000000000E+00   0.00000000000000000E+00   0.00000000000000000E+00   0.00000000000000000E+00   0.00000000000000000E+00
             0.00000000000000000E+00   3.66169983905258495E+06   3.66137339938704763E+06   3.66103357630196447E+06   0.00000000000000000E+00
             0.00000000000000000E+00   0.00000000000000000E+00   0.00000000000000000E+00   0.00000000000000000E+00   0.00000000000000000E+00
             0.00000000000000000E+00   0.00000000000000000E+00   0.00000000000000000E+00   0.00000000000000000E+00   0.00000000000000000E+00
             0.00000000000000000E+00   0.00000000000000000E+00   0.00000000000000000E+00   0.00000000000000000E+00   0.00000000000000000E+00
             0.00000000000000000E+00   0.00000000000000000E+00   0.00000000000000000E+00   0.00000000000000000E+00   0.00000000000000000E+00
             0.00000000000000000E+00   0.00000000000000000E+00   3.65193523306765966E+06   3.65132764542288333E+06   3.65085997468489967E+06
             3.65036143970603636E+06   3.64994736946778372E+06   3.64946251662782859E+06   3.64908529712771950E+06   0.00000000000000000E+00
             0.00000000000000000E+00   0.00000000000000000E+00   0.00000000000000000E+00   0.00000000000000000E+00   0.00000000000000000E+00
             0.00000000000000000E+00   0.00000000000000000E+00   0.00000000000000000E+00   0.00000000000000000E+00   0.00000000000000000E+00
             0.00000000000000000E+00   0.00000000000000000E+00   0.00000000000000000E+00   0.00000000000000000E+00   0.00000000000000000E+00
             0.00000000000000000E+00   0.00000000000000000E+00   0.00000000000000000E+00   0.00000000000000000E+00   0.00000000000000000E+00
             0.00000000000000000E+00   0.00000000000000000E+00   0.00000000000000000E+00   0.00000000000000000E+00   0.00000000000000000E+00
             0.00000000000000000E+00   0.00000000000000000E+00   0.00000000000000000E+00   0.00000000000000000E+00   0.00000000000000000E+00
             0.00000000000000000E+00   0.00000000000000000E+00   0.00000000000000000E+00   0.00000000000000000E+00   0.00000000000000000E+00
             0.00000000000000000E+00   0.00000000000000000E+00   0.00000000000000000E+00   0.00000000000000000E+00   0.00000000000000000E+00
             0.00000000000000000E+00   0.00000000000000000E+00   0.00000000000000000E+00   0.00000000000000000E+00   0.00000000000000000E+00
             0.00000000000000000E+00   0.00000000000000000E+00   0.00000000000000000E+00   0.00000000000000000E+00   0.00000000000000000E+00
             0.00000000000000000E+00   0.00000000000000000E+00   0.00000000000000000E+00   0.00000000000000000E+00   0.00000000000000000E+00
             0.00000000000000000E+00   0.00000000000000000E+00   0.00000000000000000E+00   0.00000000000000000E+00   0.00000000000000000E+00
             0.00000000000000000E+00   0.00000000000000000E+00   0.00000000000000000E+00   0.00000000000000000E+00   0.00000000000000000E+00
             0.00000000000000000E+00   0.00000000000000000E+00   0.00000000000000000E+00   0.00000000000000000E+00   0.00000000000000000E+00
             0.00000000000000000E+00   0.00000000000000000E+00   0.00000000000000000E+00   0.00000000000000000E+00   0.00000000000000000E+00
             0.00000000000000000E+00   0.00000000000000000E+00   0.00000000000000000E+00   0.00000000000000000E+00   0.00000000000000000E+00
             0.00000000000000000E+00   0.00000000000000000E+00   0.00000000000000000E+00   0.00000000000000000E+00   0.00000000000000000E+00
             0.00000000000000000E+00   0.00000000000000000E+00   0.00000000000000000E+00   0.00000000000000000E+00   0.00000000000000000E+00
             0.00000000000000000E+00   0.00000000000000000E+00   0.00000000000000000E+00   0.00000000000000000E+00   0.00000000000000000E+00
             0.00000000000000000E+00   0.00000000000000000E+00   0.00000000000000000E+00   0.00000000000000000E+00   0.00000000000000000E+00
             0.00000000000000000E+00   0.00000000000000000E+00   0.00000000000000000E+00   0.00000000000000000E+00   0.00000000000000000E+00
             0.00000000000000000E+00   0.00000000000000000E+00   0.00000000000000000E+00   0.00000000000000000E+00   0.00000000000000000E+00
             0.00000000000000000E+00   0.00000000000000000E+00   0.00000000000000000E+00   0.00000000000000000E+00   0.00000000000000000E+00
             0.00000000000000000E+00   0.00000000000000000E+00   0.00000000000000000E+00   0.00000000000000000E+00   0.00000000000000000E+00
             0.00000000000000000E+00   0.00000000000000000E+00   0.00000000000000000E+00   0.00000000000000000E+00   0.00000000000000000E+00
             0.00000000000000000E+00   0.00000000000000000E+00   0.00000000000000000E+00   0.00000000000000000E+00   0.00000000000000000E+00
             0.00000000000000000E+00   0.00000000000000000E+00   0.00000000000000000E+00   0.00000000000000000E+00   0.00000000000000000E+00
             0.00000000000000000E+00   0.00000000000000000E+00   0.00000000000000000E+00   0.00000000000000000E+00   0.00000000000000000E+00
             0.00000000000000000E+00   0.00000000000000000E+00   0.00000000000000000E+00   0.00000000000000000E+00   0.00000000000000000E+00
             0.00000000000000000E+00   0.00000000000000000E+00   0.00000000000000000E+00   0.00000000000000000E+00   0.00000000000000000E+00
             0.00000000000000000E+00   0.00000000000000000E+00   0.00000000000000000E+00   0.00000000000000000E+00   0.00000000000000000E+00
             0.00000000000000000E+00   0.00000000000000000E+00   0.00000000000000000E+00   0.00000000000000000E+00   0.00000000000000000E+00
             0.00000000000000000E+00   0.00000000000000000E+00   0.00000000000000000E+00   0.00000000000000000E+00   0.00000000000000000E+00
             0.00000000000000000E+00   0.00000000000000000E+00   0.00000000000000000E+00   0.00000000000000000E+00   0.00000000000000000E+00
             0.00000000000000000E+00   0.00000000000000000E+00   0.00000000000000000E+00   0.00000000000000000E+00   0.00000000000000000E+00
             0.00000000000000000E+00   0.00000000000000000E+00   0.00000000000000000E+00   0.00000000000000000E+00   0.00000000000000000E+00
             0.00000000000000000E+00   0.00000000000000000E+00   0.00000000000000000E+00   0.00000000000000000E+00   0.00000000000000000E+00
             0.00000000000000000E+00   0.00000000000000000E+00   0.00000000000000000E+00   0.00000000000000000E+00   0.00000000000000000E+00
             0.00000000000000000E+00   0.00000000000000000E+00   0.00000000000000000E+00   0.00000000000000000E+00   0.00000000000000000E+00
             0.00000000000000000E+00   0.00000000000000000E+00   0.00000000000000000E+00   0.00000000000000000E+00   0.00000000000000000E+00
             0.00000000000000000E+00   0.00000000000000000E+00   0.00000000000000000E+00   0.00000000000000000E+00   0.00000000000000000E+00
             0.00000000000000000E+00   0.00000000000000000E+00   0.00000000000000000E+00   0.00000000000000000E+00   0.00000000000000000E+00
             0.00000000000000000E+00   0.00000000000000000E+00
 ETA=   98   0.00000000000000000E+00   0.00000000000000000E+00   0.00000000000000000E+00   0.00000000000000000E+00   0.00000000000000000E+00
             0.00000000000000000E+00   0.00000000000000000E+00   0.00000000000000000E+00   0.00000000000000000E+00   0.00000000000000000E+00
             0.00000000000000000E+00   0.00000000000000000E+00   0.00000000000000000E+00   0.00000000000000000E+00   0.00000000000000000E+00
             0.00000000000000000E+00   0.00000000000000000E+00   0.00000000000000000E+00   0.00000000000000000E+00   0.00000000000000000E+00
             0.00000000000000000E+00   0.00000000000000000E+00   0.00000000000000000E+00   0.00000000000000000E+00   0.00000000000000000E+00
             0.00000000000000000E+00   0.00000000000000000E+00   0.00000000000000000E+00   0.00000000000000000E+00   0.00000000000000000E+00
             0.00000000000000000E+00   0.00000000000000000E+00   0.00000000000000000E+00   0.00000000000000000E+00   0.00000000000000000E+00
             0.00000000000000000E+00   0.00000000000000000E+00   0.00000000000000000E+00   0.00000000000000000E+00   0.00000000000000000E+00
             0.00000000000000000E+00   0.00000000000000000E+00   0.00000000000000000E+00   0.00000000000000000E+00   0.00000000000000000E+00
             0.00000000000000000E+00   0.00000000000000000E+00   0.00000000000000000E+00   0.00000000000000000E+00   0.00000000000000000E+00
             0.00000000000000000E+00   0.00000000000000000E+00   0.00000000000000000E+00   0.00000000000000000E+00   0.00000000000000000E+00
             0.00000000000000000E+00   0.00000000000000000E+00   0.00000000000000000E+00   0.00000000000000000E+00   0.00000000000000000E+00
             0.00000000000000000E+00   0.00000000000000000E+00   0.00000000000000000E+00   0.00000000000000000E+00   0.00000000000000000E+00
             0.00000000000000000E+00   0.00000000000000000E+00   0.00000000000000000E+00   0.00000000000000000E+00   0.00000000000000000E+00
             0.00000000000000000E+00   0.00000000000000000E+00   0.00000000000000000E+00   0.00000000000000000E+00   0.00000000000000000E+00
             0.00000000000000000E+00   0.00000000000000000E+00   0.00000000000000000E+00   0.00000000000000000E+00   0.00000000000000000E+00
             0.00000000000000000E+00   0.00000000000000000E+00   0.00000000000000000E+00   0.00000000000000000E+00   0.00000000000000000E+00
             0.00000000000000000E+00   0.00000000000000000E+00   0.00000000000000000E+00   0.00000000000000000E+00   0.00000000000000000E+00
             0.00000000000000000E+00   0.00000000000000000E+00   0.00000000000000000E+00   0.00000000000000000E+00   0.00000000000000000E+00
             0.00000000000000000E+00   0.00000000000000000E+00   0.00000000000000000E+00   0.00000000000000000E+00   0.00000000000000000E+00
             0.00000000000000000E+00   0.00000000000000000E+00   0.00000000000000000E+00   0.00000000000000000E+00   0.00000000000000000E+00
             0.00000000000000000E+00   0.00000000000000000E+00   0.00000000000000000E+00   0.00000000000000000E+00   0.00000000000000000E+00
             0.00000000000000000E+00   0.00000000000000000E+00   0.00000000000000000E+00   0.00000000000000000E+00   0.00000000000000000E+00
             0.00000000000000000E+00   0.00000000000000000E+00   0.00000000000000000E+00   0.00000000000000000E+00   0.00000000000000000E+00
             0.00000000000000000E+00   0.00000000000000000E+00   0.00000000000000000E+00   0.00000000000000000E+00   0.00000000000000000E+00
             0.00000000000000000E+00   0.00000000000000000E+00   0.00000000000000000E+00   0.00000000000000000E+00   0.00000000000000000E+00
             0.00000000000000000E+00   0.00000000000000000E+00   0.00000000000000000E+00   0.00000000000000000E+00   0.00000000000000000E+00
             0.00000000000000000E+00   0.00000000000000000E+00   0.00000000000000000E+00   0.00000000000000000E+00   0.00000000000000000E+00
             0.00000000000000000E+00   0.00000000000000000E+00   0.00000000000000000E+00   0.00000000000000000E+00   0.00000000000000000E+00
             0.00000000000000000E+00   0.00000000000000000E+00   0.00000000000000000E+00   0.00000000000000000E+00   0.00000000000000000E+00
             0.00000000000000000E+00   0.00000000000000000E+00   0.00000000000000000E+00   0.00000000000000000E+00   0.00000000000000000E+00
             0.00000000000000000E+00   0.00000000000000000E+00   0.00000000000000000E+00   0.00000000000000000E+00   0.00000000000000000E+00
             0.00000000000000000E+00   0.00000000000000000E+00   0.00000000000000000E+00   0.00000000000000000E+00   0.00000000000000000E+00
             0.00000000000000000E+00   0.00000000000000000E+00   0.00000000000000000E+00   0.00000000000000000E+00   0.00000000000000000E+00
             0.00000000000000000E+00   0.00000000000000000E+00   0.00000000000000000E+00   0.00000000000000000E+00   0.00000000000000000E+00
             0.00000000000000000E+00   0.00000000000000000E+00   0.00000000000000000E+00   0.00000000000000000E+00   0.00000000000000000E+00
             0.00000000000000000E+00   0.00000000000000000E+00   0.00000000000000000E+00   0.00000000000000000E+00   0.00000000000000000E+00
             0.00000000000000000E+00   0.00000000000000000E+00   3.66140165689377766E+06   3.66103446115446882E+06   0.00000000000000000E+00
             0.00000000000000000E+00   0.00000000000000000E+00   0.00000000000000000E+00   0.00000000000000000E+00   0.00000000000000000E+00
             0.00000000000000000E+00   0.00000000000000000E+00   0.00000000000000000E+00   0.00000000000000000E+00   0.00000000000000000E+00
             0.00000000000000000E+00   0.00000000000000000E+00   0.00000000000000000E+00   0.00000000000000000E+00   0.00000000000000000E+00
             0.00000000000000000E+00   0.00000000000000000E+00   0.00000000000000000E+00   0.00000000000000000E+00   0.00000000000000000E+00
             0.00000000000000000E+00   0.00000000000000000E+00   3.65207052925059805E+06   3.65139267826378299E+06   3.65090811883742223E+06
             3.65039808345398679E+06   3.64998110172880581E+06   3.64949508418819308E+06   3.64912264790708898E+06   0.00000000000000000E+00
             0.00000000000000000E+00   0.00000000000000000E+00   0.00000000000000000E+00   0.00000000000000000E+00   0.00000000000000000E+00
             0.00000000000000000E+00   0.00000000000000000E+00   0.00000000000000000E+00   0.00000000000000000E+00   0.00000000000000000E+00
             0.00000000000000000E+00   0.00000000000000000E+00   0.00000000000000000E+00   0.00000000000000000E+00   0.00000000000000000E+00
             0.00000000000000000E+00   0.00000000000000000E+00   0.00000000000000000E+00   0.00000000000000000E+00   0.00000000000000000E+00
             0.00000000000000000E+00   0.00000000000000000E+00   0.00000000000000000E+00   0.00000000000000000E+00   0.00000000000000000E+00
             0.00000000000000000E+00   0.00000000000000000E+00   0.00000000000000000E+00   0.00000000000000000E+00   0.00000000000000000E+00
             0.00000000000000000E+00   0.00000000000000000E+00   0.00000000000000000E+00   0.00000000000000000E+00   0.00000000000000000E+00
             0.00000000000000000E+00   0.00000000000000000E+00   0.00000000000000000E+00   0.00000000000000000E+00   0.00000000000000000E+00
             0.00000000000000000E+00   0.00000000000000000E+00   0.00000000000000000E+00   0.00000000000000000E+00   0.00000000000000000E+00
             0.00000000000000000E+00   0.00000000000000000E+00   0.00000000000000000E+00   0.00000000000000000E+00   0.00000000000000000E+00
             0.00000000000000000E+00   0.00000000000000000E+00   0.00000000000000000E+00   0.00000000000000000E+00   0.00000000000000000E+00
             0.00000000000000000E+00   0.00000000000000000E+00   0.00000000000000000E+00   0.00000000000000000E+00   0.00000000000000000E+00
             0.00000000000000000E+00   0.00000000000000000E+00   0.00000000000000000E+00   0.00000000000000000E+00   0.00000000000000000E+00
             0.00000000000000000E+00   0.00000000000000000E+00   0.00000000000000000E+00   0.00000000000000000E+00   0.00000000000000000E+00
             0.00000000000000000E+00   0.00000000000000000E+00   0.00000000000000000E+00   0.00000000000000000E+00   0.00000000000000000E+00
             0.00000000000000000E+00   0.00000000000000000E+00   0.00000000000000000E+00   0.00000000000000000E+00   0.00000000000000000E+00
             0.00000000000000000E+00   0.00000000000000000E+00   0.00000000000000000E+00   0.00000000000000000E+00   0.00000000000000000E+00
             0.00000000000000000E+00   0.00000000000000000E+00   0.00000000000000000E+00   0.00000000000000000E+00   0.00000000000000000E+00
             0.00000000000000000E+00   0.00000000000000000E+00   0.00000000000000000E+00   0.00000000000000000E+00   0.00000000000000000E+00
             0.00000000000000000E+00   0.00000000000000000E+00   0.00000000000000000E+00   0.00000000000000000E+00   0.00000000000000000E+00
             0.00000000000000000E+00   0.00000000000000000E+00   0.00000000000000000E+00   0.00000000000000000E+00   0.00000000000000000E+00
             0.00000000000000000E+00   0.00000000000000000E+00   0.00000000000000000E+00   0.00000000000000000E+00   0.00000000000000000E+00
             0.00000000000000000E+00   0.00000000000000000E+00   0.00000000000000000E+00   0.00000000000000000E+00   0.00000000000000000E+00
             0.00000000000000000E+00   0.00000000000000000E+00   0.00000000000000000E+00   0.00000000000000000E+00   0.00000000000000000E+00
             0.00000000000000000E+00   0.00000000000000000E+00   0.00000000000000000E+00   0.00000000000000000E+00   0.00000000000000000E+00
             0.00000000000000000E+00   0.00000000000000000E+00   0.00000000000000000E+00   0.00000000000000000E+00   0.00000000000000000E+00
             0.00000000000000000E+00   0.00000000000000000E+00   0.00000000000000000E+00   0.00000000000000000E+00   0.00000000000000000E+00
             0.00000000000000000E+00   0.00000000000000000E+00   0.00000000000000000E+00   0.00000000000000000E+00   0.00000000000000000E+00
             0.00000000000000000E+00   0.00000000000000000E+00   0.00000000000000000E+00   0.00000000000000000E+00   0.00000000000000000E+00
             0.00000000000000000E+00   0.00000000000000000E+00   0.00000000000000000E+00   0.00000000000000000E+00   0.00000000000000000E+00
             0.00000000000000000E+00   0.00000000000000000E+00   0.00000000000000000E+00   0.00000000000000000E+00   0.00000000000000000E+00
             0.00000000000000000E+00   0.00000000000000000E+00   0.00000000000000000E+00   0.00000000000000000E+00   0.00000000000000000E+00
             0.00000000000000000E+00   0.00000000000000000E+00   0.00000000000000000E+00   0.00000000000000000E+00   0.00000000000000000E+00
             0.00000000000000000E+00   0.00000000000000000E+00   0.00000000000000000E+00   0.00000000000000000E+00   0.00000000000000000E+00
             0.00000000000000000E+00   0.00000000000000000E+00   0.00000000000000000E+00   0.00000000000000000E+00   0.00000000000000000E+00
             0.00000000000000000E+00   0.00000000000000000E+00   0.00000000000000000E+00   0.00000000000000000E+00   0.00000000000000000E+00
             0.00000000000000000E+00   0.00000000000000000E+00   0.00000000000000000E+00   0.00000000000000000E+00   0.00000000000000000E+00
             0.00000000000000000E+00   0.00000000000000000E+00   0.00000000000000000E+00   0.00000000000000000E+00   0.00000000000000000E+00
             0.00000000000000000E+00   0.00000000000000000E+00   0.00000000000000000E+00   0.00000000000000000E+00   0.00000000000000000E+00
             0.00000000000000000E+00   0.00000000000000000E+00   0.00000000000000000E+00   0.00000000000000000E+00   0.00000000000000000E+00
             0.00000000000000000E+00   0.00000000000000000E+00   0.00000000000000000E+00   0.00000000000000000E+00   0.00000000000000000E+00
             0.00000000000000000E+00   0.00000000000000000E+00   0.00000000000000000E+00   0.00000000000000000E+00   0.00000000000000000E+00
             0.00000000000000000E+00   0.00000000000000000E+00
